<routes>
        <vType id="typeWE" accel="0.8" decel="4.5" sigma="0.5" length="5" minGap="2.5" maxSpeed="16.67" guiShape="passenger"/>
        <vType id="typeNS" accel="0.8" decel="4.5" sigma="0.5" length="7" minGap="3" maxSpeed="25" guiShape="bus"/>

        <route id="right" edges="51o 1i 2o 52i" />
        <route id="left" edges="52o 2i 1o 51i" />
        <route id="down" edges="54o 4i 3o 53i" />
        <route id="up" edges="53o 3i 4o 54i" />
    <vehicle id="left_0" type="typeWE" route="left" depart="0" />
    <vehicle id="left_1" type="typeWE" route="left" depart="2" />
    <vehicle id="right_2" type="typeWE" route="right" depart="3" />
    <vehicle id="down_3" type="typeNS" route="up" depart="4" color="1,0,0"/>
    <vehicle id="left_4" type="typeWE" route="left" depart="10" />
    <vehicle id="right_5" type="typeWE" route="right" depart="11" />
    <vehicle id="down_6" type="typeNS" route="up" depart="16" color="1,0,0"/>
    <vehicle id="right_7" type="typeWE" route="right" depart="22" />
    <vehicle id="left_8" type="typeWE" route="left" depart="22" />
    <vehicle id="right_9" type="typeWE" route="right" depart="25" />
    <vehicle id="right_10" type="typeWE" route="right" depart="31" />
    <vehicle id="down_11" type="typeNS" route="down" depart="31" color="1,0,0"/>
    <vehicle id="down_12" type="typeNS" route="up" depart="32" color="1,0,0"/>
    <vehicle id="right_13" type="typeWE" route="right" depart="34" />
    <vehicle id="right_14" type="typeWE" route="right" depart="40" />
    <vehicle id="left_15" type="typeWE" route="left" depart="41" />
    <vehicle id="right_16" type="typeWE" route="right" depart="44" />
    <vehicle id="left_17" type="typeWE" route="left" depart="49" />
    <vehicle id="down_18" type="typeNS" route="up" depart="51" color="1,0,0"/>
    <vehicle id="right_19" type="typeWE" route="right" depart="56" />
    <vehicle id="right_20" type="typeWE" route="right" depart="63" />
    <vehicle id="right_21" type="typeWE" route="right" depart="64" />
    <vehicle id="left_22" type="typeWE" route="left" depart="67" />
    <vehicle id="down_23" type="typeNS" route="down" depart="72" color="1,0,0"/>
    <vehicle id="left_24" type="typeWE" route="left" depart="74" />
    <vehicle id="right_25" type="typeWE" route="right" depart="81" />
    <vehicle id="down_26" type="typeNS" route="down" depart="85" color="1,0,0"/>
    <vehicle id="right_27" type="typeWE" route="right" depart="92" />
    <vehicle id="down_28" type="typeNS" route="down" depart="98" color="1,0,0"/>
    <vehicle id="down_29" type="typeNS" route="up" depart="103" color="1,0,0"/>
    <vehicle id="down_30" type="typeNS" route="up" depart="106" color="1,0,0"/>
    <vehicle id="down_31" type="typeNS" route="up" depart="108" color="1,0,0"/>
    <vehicle id="right_32" type="typeWE" route="right" depart="115" />
    <vehicle id="left_33" type="typeWE" route="left" depart="117" />
    <vehicle id="left_34" type="typeWE" route="left" depart="120" />
    <vehicle id="left_35" type="typeWE" route="left" depart="123" />
    <vehicle id="left_36" type="typeWE" route="left" depart="125" />
    <vehicle id="right_37" type="typeWE" route="right" depart="126" />
    <vehicle id="right_38" type="typeWE" route="right" depart="127" />
    <vehicle id="left_39" type="typeWE" route="left" depart="129" />
    <vehicle id="down_40" type="typeNS" route="down" depart="129" color="1,0,0"/>
    <vehicle id="right_41" type="typeWE" route="right" depart="132" />
    <vehicle id="down_42" type="typeNS" route="up" depart="135" color="1,0,0"/>
    <vehicle id="left_43" type="typeWE" route="left" depart="137" />
    <vehicle id="left_44" type="typeWE" route="left" depart="147" />
    <vehicle id="down_45" type="typeNS" route="down" depart="149" color="1,0,0"/>
    <vehicle id="right_46" type="typeWE" route="right" depart="150" />
    <vehicle id="right_47" type="typeWE" route="right" depart="152" />
    <vehicle id="left_48" type="typeWE" route="left" depart="159" />
    <vehicle id="down_49" type="typeNS" route="up" depart="162" color="1,0,0"/>
    <vehicle id="right_50" type="typeWE" route="right" depart="164" />
    <vehicle id="right_51" type="typeWE" route="right" depart="171" />
    <vehicle id="right_52" type="typeWE" route="right" depart="179" />
    <vehicle id="right_53" type="typeWE" route="right" depart="180" />
    <vehicle id="right_54" type="typeWE" route="right" depart="182" />
    <vehicle id="left_55" type="typeWE" route="left" depart="204" />
    <vehicle id="down_56" type="typeNS" route="up" depart="212" color="1,0,0"/>
    <vehicle id="right_57" type="typeWE" route="right" depart="213" />
    <vehicle id="right_58" type="typeWE" route="right" depart="216" />
    <vehicle id="left_59" type="typeWE" route="left" depart="218" />
    <vehicle id="down_60" type="typeNS" route="down" depart="220" color="1,0,0"/>
    <vehicle id="right_61" type="typeWE" route="right" depart="227" />
    <vehicle id="left_62" type="typeWE" route="left" depart="232" />
    <vehicle id="right_63" type="typeWE" route="right" depart="239" />
    <vehicle id="down_64" type="typeNS" route="down" depart="241" color="1,0,0"/>
    <vehicle id="down_65" type="typeNS" route="up" depart="242" color="1,0,0"/>
    <vehicle id="right_66" type="typeWE" route="right" depart="245" />
    <vehicle id="down_67" type="typeNS" route="up" depart="248" color="1,0,0"/>
    <vehicle id="right_68" type="typeWE" route="right" depart="250" />
    <vehicle id="left_69" type="typeWE" route="left" depart="253" />
    <vehicle id="down_70" type="typeNS" route="down" depart="256" color="1,0,0"/>
    <vehicle id="left_71" type="typeWE" route="left" depart="258" />
    <vehicle id="down_72" type="typeNS" route="down" depart="258" color="1,0,0"/>
    <vehicle id="down_73" type="typeNS" route="up" depart="259" color="1,0,0"/>
    <vehicle id="left_74" type="typeWE" route="left" depart="262" />
    <vehicle id="down_75" type="typeNS" route="up" depart="263" color="1,0,0"/>
    <vehicle id="left_76" type="typeWE" route="left" depart="265" />
    <vehicle id="right_77" type="typeWE" route="right" depart="266" />
    <vehicle id="left_78" type="typeWE" route="left" depart="281" />
    <vehicle id="left_79" type="typeWE" route="left" depart="283" />
    <vehicle id="down_80" type="typeNS" route="up" depart="284" color="1,0,0"/>
    <vehicle id="right_81" type="typeWE" route="right" depart="287" />
    <vehicle id="left_82" type="typeWE" route="left" depart="287" />
    <vehicle id="left_83" type="typeWE" route="left" depart="291" />
    <vehicle id="right_84" type="typeWE" route="right" depart="292" />
    <vehicle id="down_85" type="typeNS" route="down" depart="293" color="1,0,0"/>
    <vehicle id="right_86" type="typeWE" route="right" depart="296" />
    <vehicle id="left_87" type="typeWE" route="left" depart="296" />
    <vehicle id="left_88" type="typeWE" route="left" depart="298" />
    <vehicle id="right_89" type="typeWE" route="right" depart="309" />
    <vehicle id="right_90" type="typeWE" route="right" depart="310" />
    <vehicle id="right_91" type="typeWE" route="right" depart="311" />
    <vehicle id="left_92" type="typeWE" route="left" depart="315" />
    <vehicle id="right_93" type="typeWE" route="right" depart="320" />
    <vehicle id="right_94" type="typeWE" route="right" depart="329" />
    <vehicle id="left_95" type="typeWE" route="left" depart="343" />
    <vehicle id="down_96" type="typeNS" route="up" depart="344" color="1,0,0"/>
    <vehicle id="down_97" type="typeNS" route="up" depart="347" color="1,0,0"/>
    <vehicle id="right_98" type="typeWE" route="right" depart="348" />
    <vehicle id="left_99" type="typeWE" route="left" depart="350" />
    <vehicle id="right_100" type="typeWE" route="right" depart="352" />
    <vehicle id="left_101" type="typeWE" route="left" depart="354" />
    <vehicle id="left_102" type="typeWE" route="left" depart="357" />
    <vehicle id="left_103" type="typeWE" route="left" depart="359" />
    <vehicle id="right_104" type="typeWE" route="right" depart="363" />
    <vehicle id="left_105" type="typeWE" route="left" depart="369" />
    <vehicle id="left_106" type="typeWE" route="left" depart="372" />
    <vehicle id="right_107" type="typeWE" route="right" depart="374" />
    <vehicle id="left_108" type="typeWE" route="left" depart="376" />
    <vehicle id="down_109" type="typeNS" route="up" depart="385" color="1,0,0"/>
    <vehicle id="right_110" type="typeWE" route="right" depart="389" />
    <vehicle id="left_111" type="typeWE" route="left" depart="392" />
    <vehicle id="right_112" type="typeWE" route="right" depart="402" />
    <vehicle id="left_113" type="typeWE" route="left" depart="402" />
    <vehicle id="right_114" type="typeWE" route="right" depart="406" />
    <vehicle id="left_115" type="typeWE" route="left" depart="406" />
    <vehicle id="left_116" type="typeWE" route="left" depart="414" />
    <vehicle id="down_117" type="typeNS" route="up" depart="415" color="1,0,0"/>
    <vehicle id="down_118" type="typeNS" route="up" depart="423" color="1,0,0"/>
    <vehicle id="left_119" type="typeWE" route="left" depart="430" />
    <vehicle id="down_120" type="typeNS" route="up" depart="433" color="1,0,0"/>
    <vehicle id="down_121" type="typeNS" route="down" depart="434" color="1,0,0"/>
    <vehicle id="down_122" type="typeNS" route="up" depart="436" color="1,0,0"/>
    <vehicle id="down_123" type="typeNS" route="up" depart="451" color="1,0,0"/>
    <vehicle id="right_124" type="typeWE" route="right" depart="459" />
    <vehicle id="down_125" type="typeNS" route="down" depart="468" color="1,0,0"/>
    <vehicle id="left_126" type="typeWE" route="left" depart="469" />
    <vehicle id="right_127" type="typeWE" route="right" depart="477" />
    <vehicle id="right_128" type="typeWE" route="right" depart="481" />
    <vehicle id="right_129" type="typeWE" route="right" depart="483" />
    <vehicle id="left_130" type="typeWE" route="left" depart="484" />
    <vehicle id="down_131" type="typeNS" route="up" depart="484" color="1,0,0"/>
    <vehicle id="left_132" type="typeWE" route="left" depart="490" />
    <vehicle id="down_133" type="typeNS" route="down" depart="490" color="1,0,0"/>
    <vehicle id="down_134" type="typeNS" route="down" depart="494" color="1,0,0"/>
    <vehicle id="left_135" type="typeWE" route="left" depart="495" />
    <vehicle id="right_136" type="typeWE" route="right" depart="496" />
    <vehicle id="right_137" type="typeWE" route="right" depart="501" />
    <vehicle id="down_138" type="typeNS" route="down" depart="512" color="1,0,0"/>
    <vehicle id="right_139" type="typeWE" route="right" depart="517" />
    <vehicle id="down_140" type="typeNS" route="up" depart="525" color="1,0,0"/>
    <vehicle id="right_141" type="typeWE" route="right" depart="528" />
    <vehicle id="right_142" type="typeWE" route="right" depart="530" />
    <vehicle id="down_143" type="typeNS" route="down" depart="530" color="1,0,0"/>
    <vehicle id="down_144" type="typeNS" route="down" depart="531" color="1,0,0"/>
    <vehicle id="right_145" type="typeWE" route="right" depart="533" />
    <vehicle id="right_146" type="typeWE" route="right" depart="538" />
    <vehicle id="left_147" type="typeWE" route="left" depart="538" />
    <vehicle id="right_148" type="typeWE" route="right" depart="540" />
    <vehicle id="down_149" type="typeNS" route="up" depart="541" color="1,0,0"/>
    <vehicle id="right_150" type="typeWE" route="right" depart="542" />
    <vehicle id="right_151" type="typeWE" route="right" depart="543" />
    <vehicle id="right_152" type="typeWE" route="right" depart="545" />
    <vehicle id="left_153" type="typeWE" route="left" depart="548" />
    <vehicle id="left_154" type="typeWE" route="left" depart="550" />
    <vehicle id="left_155" type="typeWE" route="left" depart="555" />
    <vehicle id="down_156" type="typeNS" route="down" depart="557" color="1,0,0"/>
    <vehicle id="right_157" type="typeWE" route="right" depart="558" />
    <vehicle id="right_158" type="typeWE" route="right" depart="562" />
    <vehicle id="right_159" type="typeWE" route="right" depart="563" />
    <vehicle id="left_160" type="typeWE" route="left" depart="576" />
    <vehicle id="down_161" type="typeNS" route="up" depart="580" color="1,0,0"/>
    <vehicle id="down_162" type="typeNS" route="down" depart="582" color="1,0,0"/>
    <vehicle id="down_163" type="typeNS" route="down" depart="585" color="1,0,0"/>
    <vehicle id="down_164" type="typeNS" route="up" depart="593" color="1,0,0"/>
    <vehicle id="right_165" type="typeWE" route="right" depart="596" />
    <vehicle id="right_166" type="typeWE" route="right" depart="601" />
    <vehicle id="right_167" type="typeWE" route="right" depart="606" />
    <vehicle id="down_168" type="typeNS" route="down" depart="606" color="1,0,0"/>
    <vehicle id="right_169" type="typeWE" route="right" depart="609" />
    <vehicle id="left_170" type="typeWE" route="left" depart="609" />
    <vehicle id="left_171" type="typeWE" route="left" depart="613" />
    <vehicle id="right_172" type="typeWE" route="right" depart="629" />
    <vehicle id="down_173" type="typeNS" route="up" depart="630" color="1,0,0"/>
    <vehicle id="right_174" type="typeWE" route="right" depart="634" />
    <vehicle id="down_175" type="typeNS" route="up" depart="635" color="1,0,0"/>
    <vehicle id="down_176" type="typeNS" route="up" depart="640" color="1,0,0"/>
    <vehicle id="right_177" type="typeWE" route="right" depart="642" />
    <vehicle id="down_178" type="typeNS" route="up" depart="646" color="1,0,0"/>
    <vehicle id="right_179" type="typeWE" route="right" depart="649" />
    <vehicle id="left_180" type="typeWE" route="left" depart="651" />
    <vehicle id="left_181" type="typeWE" route="left" depart="659" />
    <vehicle id="right_182" type="typeWE" route="right" depart="660" />
    <vehicle id="left_183" type="typeWE" route="left" depart="660" />
    <vehicle id="right_184" type="typeWE" route="right" depart="662" />
    <vehicle id="left_185" type="typeWE" route="left" depart="665" />
    <vehicle id="left_186" type="typeWE" route="left" depart="666" />
    <vehicle id="down_187" type="typeNS" route="up" depart="671" color="1,0,0"/>
    <vehicle id="left_188" type="typeWE" route="left" depart="673" />
    <vehicle id="left_189" type="typeWE" route="left" depart="676" />
    <vehicle id="left_190" type="typeWE" route="left" depart="680" />
    <vehicle id="left_191" type="typeWE" route="left" depart="682" />
    <vehicle id="down_192" type="typeNS" route="up" depart="683" color="1,0,0"/>
    <vehicle id="right_193" type="typeWE" route="right" depart="687" />
    <vehicle id="down_194" type="typeNS" route="up" depart="688" color="1,0,0"/>
    <vehicle id="down_195" type="typeNS" route="up" depart="690" color="1,0,0"/>
    <vehicle id="left_196" type="typeWE" route="left" depart="693" />
    <vehicle id="left_197" type="typeWE" route="left" depart="694" />
    <vehicle id="left_198" type="typeWE" route="left" depart="697" />
    <vehicle id="down_199" type="typeNS" route="up" depart="701" color="1,0,0"/>
    <vehicle id="left_200" type="typeWE" route="left" depart="704" />
    <vehicle id="left_201" type="typeWE" route="left" depart="706" />
    <vehicle id="right_202" type="typeWE" route="right" depart="709" />
    <vehicle id="left_203" type="typeWE" route="left" depart="709" />
    <vehicle id="right_204" type="typeWE" route="right" depart="711" />
    <vehicle id="down_205" type="typeNS" route="down" depart="712" color="1,0,0"/>
    <vehicle id="left_206" type="typeWE" route="left" depart="714" />
    <vehicle id="down_207" type="typeNS" route="up" depart="715" color="1,0,0"/>
    <vehicle id="left_208" type="typeWE" route="left" depart="721" />
    <vehicle id="right_209" type="typeWE" route="right" depart="724" />
    <vehicle id="left_210" type="typeWE" route="left" depart="727" />
    <vehicle id="right_211" type="typeWE" route="right" depart="730" />
    <vehicle id="right_212" type="typeWE" route="right" depart="731" />
    <vehicle id="right_213" type="typeWE" route="right" depart="733" />
    <vehicle id="down_214" type="typeNS" route="up" depart="741" color="1,0,0"/>
    <vehicle id="right_215" type="typeWE" route="right" depart="745" />
    <vehicle id="down_216" type="typeNS" route="down" depart="747" color="1,0,0"/>
    <vehicle id="right_217" type="typeWE" route="right" depart="751" />
    <vehicle id="left_218" type="typeWE" route="left" depart="752" />
    <vehicle id="down_219" type="typeNS" route="up" depart="754" color="1,0,0"/>
    <vehicle id="left_220" type="typeWE" route="left" depart="758" />
    <vehicle id="down_221" type="typeNS" route="up" depart="760" color="1,0,0"/>
    <vehicle id="right_222" type="typeWE" route="right" depart="763" />
    <vehicle id="left_223" type="typeWE" route="left" depart="766" />
    <vehicle id="left_224" type="typeWE" route="left" depart="782" />
    <vehicle id="left_225" type="typeWE" route="left" depart="785" />
    <vehicle id="down_226" type="typeNS" route="down" depart="792" color="1,0,0"/>
    <vehicle id="down_227" type="typeNS" route="up" depart="795" color="1,0,0"/>
    <vehicle id="right_228" type="typeWE" route="right" depart="801" />
    <vehicle id="down_229" type="typeNS" route="up" depart="801" color="1,0,0"/>
    <vehicle id="down_230" type="typeNS" route="up" depart="802" color="1,0,0"/>
    <vehicle id="right_231" type="typeWE" route="right" depart="814" />
    <vehicle id="right_232" type="typeWE" route="right" depart="823" />
    <vehicle id="left_233" type="typeWE" route="left" depart="828" />
    <vehicle id="right_234" type="typeWE" route="right" depart="830" />
    <vehicle id="left_235" type="typeWE" route="left" depart="832" />
    <vehicle id="left_236" type="typeWE" route="left" depart="841" />
    <vehicle id="left_237" type="typeWE" route="left" depart="842" />
    <vehicle id="left_238" type="typeWE" route="left" depart="843" />
    <vehicle id="left_239" type="typeWE" route="left" depart="850" />
    <vehicle id="down_240" type="typeNS" route="down" depart="851" color="1,0,0"/>
    <vehicle id="right_241" type="typeWE" route="right" depart="853" />
    <vehicle id="down_242" type="typeNS" route="up" depart="855" color="1,0,0"/>
    <vehicle id="right_243" type="typeWE" route="right" depart="857" />
    <vehicle id="down_244" type="typeNS" route="up" depart="862" color="1,0,0"/>
    <vehicle id="left_245" type="typeWE" route="left" depart="865" />
    <vehicle id="left_246" type="typeWE" route="left" depart="867" />
    <vehicle id="down_247" type="typeNS" route="up" depart="872" color="1,0,0"/>
    <vehicle id="left_248" type="typeWE" route="left" depart="874" />
    <vehicle id="left_249" type="typeWE" route="left" depart="875" />
    <vehicle id="left_250" type="typeWE" route="left" depart="879" />
    <vehicle id="down_251" type="typeNS" route="up" depart="881" color="1,0,0"/>
    <vehicle id="right_252" type="typeWE" route="right" depart="886" />
    <vehicle id="left_253" type="typeWE" route="left" depart="892" />
    <vehicle id="right_254" type="typeWE" route="right" depart="906" />
    <vehicle id="right_255" type="typeWE" route="right" depart="909" />
    <vehicle id="down_256" type="typeNS" route="up" depart="913" color="1,0,0"/>
    <vehicle id="left_257" type="typeWE" route="left" depart="924" />
    <vehicle id="right_258" type="typeWE" route="right" depart="928" />
    <vehicle id="down_259" type="typeNS" route="up" depart="932" color="1,0,0"/>
    <vehicle id="down_260" type="typeNS" route="up" depart="934" color="1,0,0"/>
    <vehicle id="right_261" type="typeWE" route="right" depart="935" />
    <vehicle id="right_262" type="typeWE" route="right" depart="939" />
    <vehicle id="left_263" type="typeWE" route="left" depart="939" />
    <vehicle id="down_264" type="typeNS" route="down" depart="941" color="1,0,0"/>
    <vehicle id="left_265" type="typeWE" route="left" depart="950" />
    <vehicle id="left_266" type="typeWE" route="left" depart="956" />
    <vehicle id="right_267" type="typeWE" route="right" depart="961" />
    <vehicle id="left_268" type="typeWE" route="left" depart="966" />
    <vehicle id="down_269" type="typeNS" route="up" depart="966" color="1,0,0"/>
    <vehicle id="left_270" type="typeWE" route="left" depart="967" />
    <vehicle id="right_271" type="typeWE" route="right" depart="976" />
    <vehicle id="right_272" type="typeWE" route="right" depart="978" />
    <vehicle id="left_273" type="typeWE" route="left" depart="988" />
    <vehicle id="right_274" type="typeWE" route="right" depart="990" />
    <vehicle id="down_275" type="typeNS" route="down" depart="991" color="1,0,0"/>
    <vehicle id="left_276" type="typeWE" route="left" depart="999" />
    <vehicle id="right_277" type="typeWE" route="right" depart="1005" />
    <vehicle id="left_278" type="typeWE" route="left" depart="1008" />
    <vehicle id="down_279" type="typeNS" route="up" depart="1017" color="1,0,0"/>
    <vehicle id="right_280" type="typeWE" route="right" depart="1018" />
    <vehicle id="right_281" type="typeWE" route="right" depart="1019" />
    <vehicle id="down_282" type="typeNS" route="up" depart="1019" color="1,0,0"/>
    <vehicle id="down_283" type="typeNS" route="up" depart="1024" color="1,0,0"/>
    <vehicle id="left_284" type="typeWE" route="left" depart="1025" />
    <vehicle id="left_285" type="typeWE" route="left" depart="1031" />
    <vehicle id="down_286" type="typeNS" route="down" depart="1035" color="1,0,0"/>
    <vehicle id="right_287" type="typeWE" route="right" depart="1036" />
    <vehicle id="right_288" type="typeWE" route="right" depart="1038" />
    <vehicle id="down_289" type="typeNS" route="up" depart="1045" color="1,0,0"/>
    <vehicle id="right_290" type="typeWE" route="right" depart="1049" />
    <vehicle id="right_291" type="typeWE" route="right" depart="1052" />
    <vehicle id="right_292" type="typeWE" route="right" depart="1065" />
    <vehicle id="right_293" type="typeWE" route="right" depart="1071" />
    <vehicle id="down_294" type="typeNS" route="up" depart="1074" color="1,0,0"/>
    <vehicle id="right_295" type="typeWE" route="right" depart="1076" />
    <vehicle id="down_296" type="typeNS" route="up" depart="1076" color="1,0,0"/>
    <vehicle id="down_297" type="typeNS" route="down" depart="1077" color="1,0,0"/>
    <vehicle id="left_298" type="typeWE" route="left" depart="1078" />
    <vehicle id="right_299" type="typeWE" route="right" depart="1081" />
    <vehicle id="down_300" type="typeNS" route="down" depart="1087" color="1,0,0"/>
    <vehicle id="down_301" type="typeNS" route="up" depart="1088" color="1,0,0"/>
    <vehicle id="down_302" type="typeNS" route="up" depart="1089" color="1,0,0"/>
    <vehicle id="down_303" type="typeNS" route="up" depart="1090" color="1,0,0"/>
    <vehicle id="down_304" type="typeNS" route="up" depart="1097" color="1,0,0"/>
    <vehicle id="right_305" type="typeWE" route="right" depart="1098" />
    <vehicle id="down_306" type="typeNS" route="up" depart="1102" color="1,0,0"/>
    <vehicle id="left_307" type="typeWE" route="left" depart="1103" />
    <vehicle id="left_308" type="typeWE" route="left" depart="1106" />
    <vehicle id="down_309" type="typeNS" route="up" depart="1108" color="1,0,0"/>
    <vehicle id="down_310" type="typeNS" route="up" depart="1112" color="1,0,0"/>
    <vehicle id="right_311" type="typeWE" route="right" depart="1113" />
    <vehicle id="left_312" type="typeWE" route="left" depart="1114" />
    <vehicle id="right_313" type="typeWE" route="right" depart="1116" />
    <vehicle id="right_314" type="typeWE" route="right" depart="1123" />
    <vehicle id="left_315" type="typeWE" route="left" depart="1124" />
    <vehicle id="left_316" type="typeWE" route="left" depart="1125" />
    <vehicle id="left_317" type="typeWE" route="left" depart="1129" />
    <vehicle id="right_318" type="typeWE" route="right" depart="1133" />
    <vehicle id="left_319" type="typeWE" route="left" depart="1134" />
    <vehicle id="down_320" type="typeNS" route="up" depart="1134" color="1,0,0"/>
    <vehicle id="down_321" type="typeNS" route="up" depart="1136" color="1,0,0"/>
    <vehicle id="right_322" type="typeWE" route="right" depart="1137" />
    <vehicle id="right_323" type="typeWE" route="right" depart="1138" />
    <vehicle id="left_324" type="typeWE" route="left" depart="1150" />
    <vehicle id="left_325" type="typeWE" route="left" depart="1152" />
    <vehicle id="right_326" type="typeWE" route="right" depart="1154" />
    <vehicle id="right_327" type="typeWE" route="right" depart="1158" />
    <vehicle id="down_328" type="typeNS" route="down" depart="1160" color="1,0,0"/>
    <vehicle id="down_329" type="typeNS" route="up" depart="1162" color="1,0,0"/>
    <vehicle id="left_330" type="typeWE" route="left" depart="1165" />
    <vehicle id="down_331" type="typeNS" route="up" depart="1165" color="1,0,0"/>
    <vehicle id="left_332" type="typeWE" route="left" depart="1166" />
    <vehicle id="left_333" type="typeWE" route="left" depart="1169" />
    <vehicle id="left_334" type="typeWE" route="left" depart="1170" />
    <vehicle id="down_335" type="typeNS" route="up" depart="1171" color="1,0,0"/>
    <vehicle id="left_336" type="typeWE" route="left" depart="1175" />
    <vehicle id="down_337" type="typeNS" route="down" depart="1176" color="1,0,0"/>
    <vehicle id="down_338" type="typeNS" route="down" depart="1177" color="1,0,0"/>
    <vehicle id="right_339" type="typeWE" route="right" depart="1180" />
    <vehicle id="down_340" type="typeNS" route="up" depart="1180" color="1,0,0"/>
    <vehicle id="right_341" type="typeWE" route="right" depart="1182" />
    <vehicle id="down_342" type="typeNS" route="down" depart="1182" color="1,0,0"/>
    <vehicle id="right_343" type="typeWE" route="right" depart="1184" />
    <vehicle id="down_344" type="typeNS" route="down" depart="1187" color="1,0,0"/>
    <vehicle id="down_345" type="typeNS" route="up" depart="1191" color="1,0,0"/>
    <vehicle id="left_346" type="typeWE" route="left" depart="1193" />
    <vehicle id="right_347" type="typeWE" route="right" depart="1209" />
    <vehicle id="down_348" type="typeNS" route="down" depart="1209" color="1,0,0"/>
    <vehicle id="right_349" type="typeWE" route="right" depart="1211" />
    <vehicle id="left_350" type="typeWE" route="left" depart="1213" />
    <vehicle id="left_351" type="typeWE" route="left" depart="1234" />
    <vehicle id="left_352" type="typeWE" route="left" depart="1238" />
    <vehicle id="down_353" type="typeNS" route="up" depart="1239" color="1,0,0"/>
    <vehicle id="left_354" type="typeWE" route="left" depart="1252" />
    <vehicle id="down_355" type="typeNS" route="down" depart="1252" color="1,0,0"/>
    <vehicle id="right_356" type="typeWE" route="right" depart="1255" />
    <vehicle id="down_357" type="typeNS" route="up" depart="1256" color="1,0,0"/>
    <vehicle id="right_358" type="typeWE" route="right" depart="1258" />
    <vehicle id="right_359" type="typeWE" route="right" depart="1265" />
    <vehicle id="down_360" type="typeNS" route="up" depart="1267" color="1,0,0"/>
    <vehicle id="right_361" type="typeWE" route="right" depart="1271" />
    <vehicle id="down_362" type="typeNS" route="down" depart="1275" color="1,0,0"/>
    <vehicle id="right_363" type="typeWE" route="right" depart="1277" />
    <vehicle id="down_364" type="typeNS" route="up" depart="1280" color="1,0,0"/>
    <vehicle id="left_365" type="typeWE" route="left" depart="1283" />
    <vehicle id="left_366" type="typeWE" route="left" depart="1285" />
    <vehicle id="right_367" type="typeWE" route="right" depart="1294" />
    <vehicle id="right_368" type="typeWE" route="right" depart="1304" />
    <vehicle id="right_369" type="typeWE" route="right" depart="1307" />
    <vehicle id="right_370" type="typeWE" route="right" depart="1311" />
    <vehicle id="left_371" type="typeWE" route="left" depart="1311" />
    <vehicle id="right_372" type="typeWE" route="right" depart="1313" />
    <vehicle id="right_373" type="typeWE" route="right" depart="1319" />
    <vehicle id="left_374" type="typeWE" route="left" depart="1320" />
    <vehicle id="right_375" type="typeWE" route="right" depart="1329" />
    <vehicle id="right_376" type="typeWE" route="right" depart="1330" />
    <vehicle id="right_377" type="typeWE" route="right" depart="1331" />
    <vehicle id="down_378" type="typeNS" route="up" depart="1333" color="1,0,0"/>
    <vehicle id="right_379" type="typeWE" route="right" depart="1335" />
    <vehicle id="down_380" type="typeNS" route="up" depart="1335" color="1,0,0"/>
    <vehicle id="right_381" type="typeWE" route="right" depart="1337" />
    <vehicle id="down_382" type="typeNS" route="up" depart="1338" color="1,0,0"/>
    <vehicle id="right_383" type="typeWE" route="right" depart="1342" />
    <vehicle id="down_384" type="typeNS" route="up" depart="1348" color="1,0,0"/>
    <vehicle id="left_385" type="typeWE" route="left" depart="1350" />
    <vehicle id="right_386" type="typeWE" route="right" depart="1356" />
    <vehicle id="down_387" type="typeNS" route="up" depart="1357" color="1,0,0"/>
    <vehicle id="right_388" type="typeWE" route="right" depart="1358" />
    <vehicle id="down_389" type="typeNS" route="up" depart="1365" color="1,0,0"/>
    <vehicle id="right_390" type="typeWE" route="right" depart="1375" />
    <vehicle id="down_391" type="typeNS" route="up" depart="1379" color="1,0,0"/>
    <vehicle id="left_392" type="typeWE" route="left" depart="1385" />
    <vehicle id="right_393" type="typeWE" route="right" depart="1386" />
    <vehicle id="down_394" type="typeNS" route="up" depart="1389" color="1,0,0"/>
    <vehicle id="down_395" type="typeNS" route="up" depart="1390" color="1,0,0"/>
    <vehicle id="down_396" type="typeNS" route="up" depart="1398" color="1,0,0"/>