<configuration>
    <input>
        <net-file value="KingsX.net.xml"/>
        <route-files value="KingsX.rou.xml"/>
		<additional-files value="KingsX.add.xml"/>
		<gui-settings-file value="KingsX.settings.xml"/>
    </input>
    <time>
        <begin value="0"/>
        <end value="36000"/>
    </time>
</configuration>