<?xml version="1.0" encoding="UTF-8"?>
<!-- generated on 2018-07-12 16:13:10.348238 by $Id$ via randomTrips.py
  options: 
-->
<routes xmlns:xsi="http://www.w3.org/2001/XMLSchema-instance" xsi:noNamespaceSchemaLocation="http://sumo.dlr.de/xsd/routes_file.xsd">
    <vType id="passenger" speedDev="0.10" vClass="passenger">
    </vType>
    <trip id="veh0" depart="0.00" departLane="best" from="3097621#3" to="-15693515#1" type="passenger"/>
    <trip id="veh1" depart="1.08" departLane="best" from="-49932201#1" to="-4256185" type="passenger"/>
    <trip id="veh2" depart="2.16" departLane="best" from="4059307#2" to="33779263" type="passenger"/>
    <trip id="veh3" depart="3.24" departLane="best" from="534681954" to="-26785612#1" type="passenger"/>
    <trip id="veh4" depart="4.32" departLane="best" from="17691744#3" to="-161652141#6" type="passenger"/>
    <trip id="veh5" depart="5.40" departLane="best" from="-4253997" to="237413929#4" type="passenger"/>
    <trip id="veh6" depart="6.48" departLane="best" from="-161652141#10" to="-4059308#1" type="passenger"/>
    <trip id="veh7" depart="7.55" departLane="best" from="3128255#1" to="26785612#7" type="passenger"/>
    <trip id="veh8" depart="8.63" departLane="best" from="-425548224" to="2850776#2" type="passenger"/>
    <trip id="veh9" depart="9.71" departLane="best" from="4257254#1" to="-129373076" type="passenger"/>
    <trip id="veh10" depart="10.79" departLane="best" from="4257251#1" to="3754142" type="passenger"/>
    <trip id="veh11" depart="11.87" departLane="best" from="-8256233#4" to="-3127741" type="passenger"/>
    <trip id="veh12" depart="12.95" departLane="best" from="-26785612#21" to="-26785614#2" type="passenger"/>
    <trip id="veh13" depart="14.03" departLane="best" from="474189878" to="2876904#6" type="passenger"/>
    <trip id="veh14" depart="15.11" departLane="best" from="4257251#4" to="405404510#1" type="passenger"/>
    <trip id="veh15" depart="16.19" departLane="best" from="26781036#0" to="8256233#3" type="passenger"/>
    <trip id="veh16" depart="17.27" departLane="best" from="132318682#8" to="26785807" type="passenger"/>
    <trip id="veh17" depart="18.35" departLane="best" from="449113135#0" to="303559648#2" type="passenger"/>
    <trip id="veh18" depart="19.43" departLane="best" from="49932201#1" to="27373392" type="passenger"/>
    <trip id="veh20" depart="21.59" departLane="best" from="-4256607" to="-534027371#0" type="passenger"/>
    <trip id="veh21" depart="22.66" departLane="best" from="-25913823#1" to="-4257240#1" type="passenger"/>
    <trip id="veh22" depart="23.74" departLane="best" from="-26785806#3" to="-500001829" type="passenger"/>
    <trip id="veh23" depart="24.82" departLane="best" from="3088642#1" to="121934169#0" type="passenger"/>
    <trip id="veh24" depart="25.90" departLane="best" from="129375495#0" to="-4253730#3" type="passenger"/>
    <trip id="veh25" depart="26.98" departLane="best" from="-49932184#0" to="72058125#0" type="passenger"/>
    <trip id="veh26" depart="28.06" departLane="best" from="3127740#0" to="300534159" type="passenger"/>
    <trip id="veh27" depart="29.14" departLane="best" from="-32263811#4" to="405404510#0" type="passenger"/>
    <trip id="veh28" depart="30.22" departLane="best" from="-32261850" to="139291982#3" type="passenger"/>
    <trip id="veh29" depart="31.30" departLane="best" from="87071669#0" to="311804827#1" type="passenger"/>
    <trip id="veh30" depart="32.38" departLane="best" from="26785895#4" to="36775550#0" type="passenger"/>
    <trip id="veh31" depart="33.46" departLane="best" from="4680890#0" to="4255963#2" type="passenger"/>
    <trip id="veh32" depart="34.54" departLane="best" from="-4256839" to="-166364166#3" type="passenger"/>
    <trip id="veh33" depart="35.62" departLane="best" from="-72058125#2" to="-49932195#0" type="passenger"/>
    <trip id="veh34" depart="36.69" departLane="best" from="-4253730#2" to="74863209#0" type="passenger"/>
    <trip id="veh35" depart="37.77" departLane="best" from="5090246#1" to="-74167879" type="passenger"/>
    <trip id="veh36" depart="38.85" departLane="best" from="316158482#2" to="161652141#5" type="passenger"/>
    <trip id="veh37" depart="39.93" departLane="best" from="589640599#4" to="207530502" type="passenger"/>
    <trip id="veh38" depart="41.01" departLane="best" from="-4638453#2" to="-4257254#7" type="passenger"/>
    <trip id="veh40" depart="43.17" departLane="best" from="27921579" to="546461337" type="passenger"/>
    <trip id="veh41" depart="44.25" departLane="best" from="161652141#8" to="-4255962#0" type="passenger"/>
    <trip id="veh42" depart="45.33" departLane="best" from="95129805#1" to="24417542#13" type="passenger"/>
    <trip id="veh43" depart="46.41" departLane="best" from="-26785612#18" to="-17926244" type="passenger"/>
    <trip id="veh44" depart="47.49" departLane="best" from="-26815501#1" to="3087448" type="passenger"/>
    <trip id="veh46" depart="49.65" departLane="best" from="-228016376" to="14200525#1" type="passenger"/>
    <trip id="veh47" depart="50.73" departLane="best" from="9344819#0" to="26709645#0" type="passenger"/>
    <trip id="veh48" depart="51.80" departLane="best" from="8256233#4" to="49932206" type="passenger"/>
    <trip id="veh49" depart="52.88" departLane="best" from="-129375498#3" to="396327477#0" type="passenger"/>
    <trip id="veh50" depart="53.96" departLane="best" from="33779263" to="26785612#1" type="passenger"/>
    <trip id="veh51" depart="55.04" departLane="best" from="-474189878" to="311804828#1" type="passenger"/>
    <trip id="veh52" depart="56.12" departLane="best" from="-26815505" to="197476980#1" type="passenger"/>
    <trip id="veh53" depart="57.20" departLane="best" from="5090246#0" to="-4680836#0" type="passenger"/>
    <trip id="veh54" depart="58.28" departLane="best" from="234575099#4" to="-36775925" type="passenger"/>
    <trip id="veh55" depart="59.36" departLane="best" from="587007396" to="507160892" type="passenger"/>
    <trip id="veh56" depart="60.44" departLane="best" from="-547168304" to="311804826#2" type="passenger"/>
    <trip id="veh57" depart="61.52" departLane="best" from="291536189" to="-311804827#1" type="passenger"/>
    <trip id="veh58" depart="62.60" departLane="best" from="4253730#0" to="26785612#15" type="passenger"/>
    <trip id="veh59" depart="63.68" departLane="best" from="4255963#0" to="26709645#2" type="passenger"/>
    <trip id="veh60" depart="64.76" departLane="best" from="-100266647#1" to="-8096701#3" type="passenger"/>
    <trip id="veh61" depart="65.83" departLane="best" from="-152822405#0" to="61904421#3" type="passenger"/>
    <trip id="veh62" depart="66.91" departLane="best" from="527084929" to="4607837#1" type="passenger"/>
    <trip id="veh63" depart="67.99" departLane="best" from="-589640603#2" to="-207529550#2" type="passenger"/>
    <trip id="veh64" depart="69.07" departLane="best" from="513773776#1" to="7744558#0" type="passenger"/>
    <trip id="veh65" depart="70.15" departLane="best" from="-26709645#4" to="233625361#0" type="passenger"/>
    <trip id="veh66" depart="71.23" departLane="best" from="-24417542#1" to="4253730#3" type="passenger"/>
    <trip id="veh67" depart="72.31" departLane="best" from="4253965#0" to="-286754711#0" type="passenger"/>
    <trip id="veh68" depart="73.39" departLane="best" from="224188123#1" to="26785806#2" type="passenger"/>
    <trip id="veh69" depart="74.47" departLane="best" from="-4680836#0" to="5090246#1" type="passenger"/>
    <trip id="veh70" depart="75.55" departLane="best" from="17896746" to="-4253965#2" type="passenger"/>
    <trip id="veh71" depart="76.63" departLane="best" from="26785612#11" to="405404510#1" type="passenger"/>
    <trip id="veh72" depart="77.71" departLane="best" from="-4059308#3" to="-72058125#0" type="passenger"/>
    <trip id="veh73" depart="78.79" departLane="best" from="9195642#2" to="315631025#0" type="passenger"/>
    <trip id="veh74" depart="79.87" departLane="best" from="197476980#1" to="25803169#1" type="passenger"/>
    <trip id="veh75" depart="80.94" departLane="best" from="-26997928#2" to="-4256272#0" type="passenger"/>
    <trip id="veh76" depart="82.02" departLane="best" from="-8256233#0" to="2850776#0" type="passenger"/>
    <trip id="veh77" depart="83.10" departLane="best" from="-4257022" to="-4255962#1" type="passenger"/>
    <trip id="veh78" depart="84.18" departLane="best" from="-24417542#13" to="3088642#1" type="passenger"/>
    <trip id="veh79" depart="85.26" departLane="best" from="-4256839" to="562623746#0" type="passenger"/>
    <trip id="veh80" depart="86.34" departLane="best" from="49932200#0" to="-24417542#2" type="passenger"/>
    <trip id="veh81" depart="87.42" departLane="best" from="-4257242#0" to="330341#3" type="passenger"/>
    <trip id="veh82" depart="88.50" departLane="best" from="-4253991" to="-2876904#4" type="passenger"/>
    <trip id="veh83" depart="89.58" departLane="best" from="69961424#1" to="26839386#4" type="passenger"/>
    <trip id="veh84" depart="90.66" departLane="best" from="224187909" to="4256304" type="passenger"/>
    <trip id="veh85" depart="91.74" departLane="best" from="4257251#5" to="-3996989#0" type="passenger"/>
    <trip id="veh86" depart="92.82" departLane="best" from="-26785614#0" to="189241670" type="passenger"/>
    <trip id="veh87" depart="93.90" departLane="best" from="17926243" to="2199185" type="passenger"/>
    <trip id="veh88" depart="94.97" departLane="best" from="404014011" to="33281572" type="passenger"/>
    <trip id="veh89" depart="96.05" departLane="best" from="166364279#0" to="-8386760#0" type="passenger"/>
    <trip id="veh90" depart="97.13" departLane="best" from="49932201#1" to="-4257255#2" type="passenger"/>
    <trip id="veh92" depart="99.29" departLane="best" from="17691744#3" to="-500005090#0" type="passenger"/>
    <trip id="veh93" depart="100.37" departLane="best" from="-4257255#1" to="605078470#3" type="passenger"/>
    <trip id="veh94" depart="101.45" departLane="best" from="201491584#1" to="49932207" type="passenger"/>
    <trip id="veh95" depart="102.53" departLane="best" from="26785806#0" to="-18309858#2" type="passenger"/>
    <trip id="veh96" depart="103.61" departLane="best" from="98977079" to="4680836#0" type="passenger"/>
    <trip id="veh98" depart="105.77" departLane="best" from="485038830" to="-32263808#2" type="passenger"/>
    <trip id="veh99" depart="106.85" departLane="best" from="166364166#1" to="-2199747#1" type="passenger"/>
    <trip id="veh100" depart="107.93" departLane="best" from="139291982#2" to="8407161#2" type="passenger"/>
    <trip id="veh101" depart="109.01" departLane="best" from="-4680836#0" to="4256272#1" type="passenger"/>
    <trip id="veh102" depart="110.08" departLane="best" from="207527403#2" to="17926243" type="passenger"/>
    <trip id="veh103" depart="111.16" departLane="best" from="8096701#6" to="95129805#1" type="passenger"/>
    <trip id="veh104" depart="112.24" departLane="best" from="26785895#2" to="39025894#1" type="passenger"/>
    <trip id="veh105" depart="113.32" departLane="best" from="-3127736#1" to="-547560261#0" type="passenger"/>
    <trip id="veh106" depart="114.40" departLane="best" from="82124997#5" to="279154270#2" type="passenger"/>
    <trip id="veh107" depart="115.48" departLane="best" from="26785612#18" to="4082616#1" type="passenger"/>
    <trip id="veh108" depart="116.56" departLane="best" from="-207529550#0" to="2793048#2" type="passenger"/>
    <trip id="veh109" depart="117.64" departLane="best" from="235993022#0" to="49932195#2" type="passenger"/>
    <trip id="veh110" depart="118.72" departLane="best" from="-3128255#0" to="8096707#0" type="passenger"/>
    <trip id="veh111" depart="119.80" departLane="best" from="-25913823#1" to="-38748215#4" type="passenger"/>
    <trip id="veh112" depart="120.88" departLane="best" from="286754715#4" to="33281860" type="passenger"/>
    <trip id="veh113" depart="121.96" departLane="best" from="-4257240#2" to="-26997928#1" type="passenger"/>
    <trip id="veh114" depart="123.04" departLane="best" from="534027370#1" to="-4257254#6" type="passenger"/>
    <trip id="veh115" depart="124.11" departLane="best" from="286754715#3" to="304095757#0" type="passenger"/>
    <trip id="veh116" depart="125.19" departLane="best" from="25913821#0" to="69961424#2" type="passenger"/>
    <trip id="veh117" depart="126.27" departLane="best" from="3284233#3" to="-561132265" type="passenger"/>
    <trip id="veh118" depart="127.35" departLane="best" from="-72058130#1" to="41588157#2" type="passenger"/>
    <trip id="veh119" depart="128.43" departLane="best" from="-24417542#5" to="207529550#2" type="passenger"/>
    <trip id="veh120" depart="129.51" departLane="best" from="95208554" to="9616291" type="passenger"/>
    <trip id="veh121" depart="130.59" departLane="best" from="-24417542#7" to="-4253992" type="passenger"/>
    <trip id="veh122" depart="131.67" departLane="best" from="-4680836#0" to="69961424#1" type="passenger"/>
    <trip id="veh123" depart="132.75" departLane="best" from="527107413" to="527688915#1" type="passenger"/>
    <trip id="veh124" depart="133.83" departLane="best" from="129375494" to="-3128349#1" type="passenger"/>
    <trip id="veh125" depart="134.91" departLane="best" from="4607835#1" to="379356921#1" type="passenger"/>
    <trip id="veh126" depart="135.99" departLane="best" from="294662324" to="87071669#2" type="passenger"/>
    <trip id="veh127" depart="137.07" departLane="best" from="315392145#2" to="-129373078#1" type="passenger"/>
    <trip id="veh128" depart="138.15" departLane="best" from="4300619" to="-558255409#1" type="passenger"/>
    <trip id="veh129" depart="139.22" departLane="best" from="-2876904#7" to="-26839386#3" type="passenger"/>
    <trip id="veh130" depart="140.30" departLane="best" from="-49932196#1" to="292801791#0" type="passenger"/>
    <trip id="veh131" depart="141.38" departLane="best" from="3087832#1" to="-4680836#1" type="passenger"/>
    <trip id="veh132" depart="142.46" departLane="best" from="233625261#0" to="562623746#0" type="passenger"/>
    <trip id="veh133" depart="143.54" departLane="best" from="474064711" to="-26785612#21" type="passenger"/>
    <trip id="veh134" depart="144.62" departLane="best" from="17926243" to="-49932207" type="passenger"/>
    <trip id="veh135" depart="145.70" departLane="best" from="-109850084#0" to="4254950#0" type="passenger"/>
    <trip id="veh136" depart="146.78" departLane="best" from="3097584#2" to="-4638453#0" type="passenger"/>
    <trip id="veh137" depart="147.86" departLane="best" from="4068451#0" to="26785807" type="passenger"/>
    <trip id="veh138" depart="148.94" departLane="best" from="17929789#0" to="-129375496#0" type="passenger"/>
    <trip id="veh139" depart="150.02" departLane="best" from="-25803169#0" to="52918816#3" type="passenger"/>
    <trip id="veh140" depart="151.10" departLane="best" from="550552856" to="26785612#9" type="passenger"/>
    <trip id="veh141" depart="152.18" departLane="best" from="4607837#0" to="279154283" type="passenger"/>
    <trip id="veh142" depart="153.25" departLane="best" from="-3087449#1" to="-28509865#0" type="passenger"/>
    <trip id="veh143" depart="154.33" departLane="best" from="-59374120" to="547560261#0" type="passenger"/>
    <trip id="veh144" depart="155.41" departLane="best" from="4257239" to="49932206" type="passenger"/>
    <trip id="veh145" depart="156.49" departLane="best" from="542829553#1" to="-4253828#0" type="passenger"/>
    <trip id="veh146" depart="157.57" departLane="best" from="-4257255#0" to="-26785892" type="passenger"/>
    <trip id="veh148" depart="159.73" departLane="best" from="166364279#6" to="30575232#0" type="passenger"/>
    <trip id="veh149" depart="160.81" departLane="best" from="-3127736#1" to="6246733" type="passenger"/>
    <trip id="veh150" depart="161.89" departLane="best" from="49932206" to="8347028#1" type="passenger"/>
    <trip id="veh151" depart="162.97" departLane="best" from="4257254#3" to="52918815#0" type="passenger"/>
    <trip id="veh152" depart="164.05" departLane="best" from="-15693515#1" to="4059326#0" type="passenger"/>
    <trip id="veh153" depart="165.13" departLane="best" from="-81430722" to="6268146" type="passenger"/>
    <trip id="veh154" depart="166.21" departLane="best" from="4257244#2" to="49934843#1" type="passenger"/>
    <trip id="veh155" depart="167.29" departLane="best" from="4257254#3" to="-49932187" type="passenger"/>
    <trip id="veh156" depart="168.36" departLane="best" from="4256272#1" to="-26801532#2" type="passenger"/>
    <trip id="veh157" depart="169.44" departLane="best" from="501181888#1" to="49932204#2" type="passenger"/>
    <trip id="veh158" depart="170.52" departLane="best" from="-4255963#0" to="437702491" type="passenger"/>
    <trip id="veh160" depart="172.68" departLane="best" from="4257238#0" to="-4256839" type="passenger"/>
    <trip id="veh161" depart="173.76" departLane="best" from="-156159285#3" to="-404014016#2" type="passenger"/>
    <trip id="veh162" depart="174.84" departLane="best" from="-8096701#6" to="49934847#1" type="passenger"/>
    <trip id="veh163" depart="175.92" departLane="best" from="82124997#2" to="-500005090#1" type="passenger"/>
    <trip id="veh164" depart="177.00" departLane="best" from="31030#1" to="16294198" type="passenger"/>
    <trip id="veh165" depart="178.08" departLane="best" from="8386769" to="26785012#1" type="passenger"/>
    <trip id="veh166" depart="179.16" departLane="best" from="73925575#0" to="-26839386#3" type="passenger"/>
    <trip id="veh167" depart="180.24" departLane="best" from="8256233#3" to="-36775925" type="passenger"/>
    <trip id="veh168" depart="181.32" departLane="best" from="8169022#0" to="-49932184#0" type="passenger"/>
    <trip id="veh169" depart="182.39" departLane="best" from="-26801532#1" to="197476980#0" type="passenger"/>
    <trip id="veh170" depart="183.47" departLane="best" from="402061426#1" to="-72058130#1" type="passenger"/>
    <trip id="veh171" depart="184.55" departLane="best" from="2876904#0" to="24417542#7" type="passenger"/>
    <trip id="veh173" depart="186.71" departLane="best" from="-438319268#1" to="380467038#1" type="passenger"/>
    <trip id="veh174" depart="187.79" departLane="best" from="-109850053" to="605454357" type="passenger"/>
    <trip id="veh175" depart="188.87" departLane="best" from="26785612#1" to="39028323#0" type="passenger"/>
    <trip id="veh176" depart="189.95" departLane="best" from="4068451#1" to="3318926#1" type="passenger"/>
    <trip id="veh177" depart="191.03" departLane="best" from="-72058120" to="49932184#1" type="passenger"/>
    <trip id="veh178" depart="192.11" departLane="best" from="38748215#0" to="-561132265" type="passenger"/>
    <trip id="veh181" depart="195.35" departLane="best" from="74167686" to="34018981#0" type="passenger"/>
    <trip id="veh182" depart="196.43" departLane="best" from="547168304" to="303559641#5" type="passenger"/>
    <trip id="veh183" depart="197.50" departLane="best" from="-557689377" to="26785782#1" type="passenger"/>
    <trip id="veh184" depart="198.58" departLane="best" from="-100266647#0" to="-527689962#0" type="passenger"/>
    <trip id="veh185" depart="199.66" departLane="best" from="17929793#0" to="279154271#0" type="passenger"/>
    <trip id="veh186" depart="200.74" departLane="best" from="315631025#0" to="2191122#0" type="passenger"/>
    <trip id="veh187" depart="201.82" departLane="best" from="201491583#2" to="-4253993#0" type="passenger"/>
    <trip id="veh188" depart="202.90" departLane="best" from="224188120#0" to="558255409#0" type="passenger"/>
    <trip id="veh189" depart="203.98" departLane="best" from="4257239" to="-32263811#4" type="passenger"/>
    <trip id="veh190" depart="205.06" departLane="best" from="-26709645#3" to="2509157" type="passenger"/>
    <trip id="veh191" depart="206.14" departLane="best" from="3087449#0" to="-82124997#5" type="passenger"/>
    <trip id="veh192" depart="207.22" departLane="best" from="43573215#3" to="41518102#1" type="passenger"/>
    <trip id="veh193" depart="208.30" departLane="best" from="330341#1" to="-4256212" type="passenger"/>
    <trip id="veh194" depart="209.38" departLane="best" from="-4059306#3" to="-15693515#0" type="passenger"/>
    <trip id="veh196" depart="211.54" departLane="best" from="485039787" to="-24417542#8" type="passenger"/>
    <trip id="veh197" depart="212.61" departLane="best" from="17513377" to="3087832#1" type="passenger"/>
    <trip id="veh198" depart="213.69" departLane="best" from="-404014016#2" to="3754138" type="passenger"/>
    <trip id="veh199" depart="214.77" departLane="best" from="234289724#1" to="-4257254#2" type="passenger"/>
    <trip id="veh200" depart="215.85" departLane="best" from="316805864" to="-116974799#2" type="passenger"/>
    <trip id="veh201" depart="216.93" departLane="best" from="41518101#1" to="4254008" type="passenger"/>
    <trip id="veh202" depart="218.01" departLane="best" from="-26785897" to="17926247#1" type="passenger"/>
    <trip id="veh203" depart="219.09" departLane="best" from="-33281572" to="8096701#2" type="passenger"/>
    <trip id="veh204" depart="220.17" departLane="best" from="24936218#0" to="-18309858#2" type="passenger"/>
    <trip id="veh205" depart="221.25" departLane="best" from="-4257255#0" to="49932186#0" type="passenger"/>
    <trip id="veh206" depart="222.33" departLane="best" from="32263811#4" to="88669241" type="passenger"/>
    <trip id="veh207" depart="223.41" departLane="best" from="286754719" to="7744564#4" type="passenger"/>
    <trip id="veh208" depart="224.49" departLane="best" from="534027371#1" to="303559639#2" type="passenger"/>
    <trip id="veh209" depart="225.57" departLane="best" from="385085394" to="237413929#3" type="passenger"/>
    <trip id="veh210" depart="226.64" departLane="best" from="4592636#1" to="26785782#1" type="passenger"/>
    <trip id="veh211" depart="227.72" departLane="best" from="542827483#0" to="4068455#3" type="passenger"/>
    <trip id="veh212" depart="228.80" departLane="best" from="224188123#0" to="-4607839#0" type="passenger"/>
    <trip id="veh213" depart="229.88" departLane="best" from="-4257254#5" to="311804825" type="passenger"/>
    <trip id="veh214" depart="230.96" departLane="best" from="4253965#0" to="25913821#6" type="passenger"/>
    <trip id="veh215" depart="232.04" departLane="best" from="306452416#0" to="-49932204#3" type="passenger"/>
    <trip id="veh216" depart="233.12" departLane="best" from="-49932196#0" to="-7744564#1" type="passenger"/>
    <trip id="veh217" depart="234.20" departLane="best" from="26785612#13" to="-30280299#1" type="passenger"/>
    <trip id="veh218" depart="235.28" departLane="best" from="-4257223#0" to="36814929#2" type="passenger"/>
    <trip id="veh219" depart="236.36" departLane="best" from="379356921#1" to="-228569788" type="passenger"/>
    <trip id="veh220" depart="237.44" departLane="best" from="166364279#9" to="26785612#21" type="passenger"/>
    <trip id="veh221" depart="238.52" departLane="best" from="17513379" to="-4253273#3" type="passenger"/>
    <trip id="veh222" depart="239.60" departLane="best" from="17513383#2" to="561132269#2" type="passenger"/>
    <trip id="veh223" depart="240.68" departLane="best" from="279154283" to="371685749" type="passenger"/>
    <trip id="veh224" depart="241.75" departLane="best" from="141351326#0" to="-116974799#2" type="passenger"/>
    <trip id="veh225" depart="242.83" departLane="best" from="-9344819#1" to="41588167#0" type="passenger"/>
    <trip id="veh226" depart="243.91" departLane="best" from="49932190#1" to="78335461" type="passenger"/>
    <trip id="veh227" depart="244.99" departLane="best" from="17513383#0" to="4082616#0" type="passenger"/>
    <trip id="veh228" depart="246.07" departLane="best" from="26785612#6" to="2876904#6" type="passenger"/>
    <trip id="veh229" depart="247.15" departLane="best" from="19727047" to="-161652141#5" type="passenger"/>
    <trip id="veh230" depart="248.23" departLane="best" from="-82124997#2" to="35468458#1" type="passenger"/>
    <trip id="veh231" depart="249.31" departLane="best" from="166364279#13" to="-32263479#1" type="passenger"/>
    <trip id="veh232" depart="250.39" departLane="best" from="2199184#0" to="-28509865#0" type="passenger"/>
    <trip id="veh233" depart="251.47" departLane="best" from="303559646" to="-161652141#11" type="passenger"/>
    <trip id="veh234" depart="252.55" departLane="best" from="157547569#0" to="26815505" type="passenger"/>
    <trip id="veh235" depart="253.63" departLane="best" from="-161652141#11" to="3127736#2" type="passenger"/>
    <trip id="veh236" depart="254.71" departLane="best" from="-29077294" to="211959862" type="passenger"/>
    <trip id="veh237" depart="255.78" departLane="best" from="-18309858#1" to="139291982#3" type="passenger"/>
    <trip id="veh238" depart="256.86" departLane="best" from="-4253828#0" to="-8096707#0" type="passenger"/>
    <trip id="veh240" depart="259.02" departLane="best" from="41588157#0" to="4607838" type="passenger"/>
    <trip id="veh241" depart="260.10" departLane="best" from="-152822405#0" to="26785612#15" type="passenger"/>
    <trip id="veh242" depart="261.18" departLane="best" from="99495399" to="-95129805#0" type="passenger"/>
    <trip id="veh243" depart="262.26" departLane="best" from="3128255#1" to="4256185" type="passenger"/>
    <trip id="veh244" depart="263.34" departLane="best" from="3128349#2" to="41588174#0" type="passenger"/>
    <trip id="veh245" depart="264.42" departLane="best" from="7744564#4" to="-4059308#2" type="passenger"/>
    <trip id="veh246" depart="265.50" departLane="best" from="-155724660" to="-311804827#0" type="passenger"/>
    <trip id="veh247" depart="266.58" departLane="best" from="-2837144" to="330341#4" type="passenger"/>
    <trip id="veh248" depart="267.66" departLane="best" from="26815501#1" to="-4254008" type="passenger"/>
    <trip id="veh249" depart="268.74" departLane="best" from="36814930" to="4253995#0" type="passenger"/>
    <trip id="veh250" depart="269.82" departLane="best" from="-32263808#2" to="299652848" type="passenger"/>
    <trip id="veh251" depart="270.89" departLane="best" from="4082616#0" to="-26839386#1" type="passenger"/>
    <trip id="veh252" depart="271.97" departLane="best" from="43573215#6" to="81446467#1" type="passenger"/>
    <trip id="veh253" depart="273.05" departLane="best" from="-26801532#1" to="-157547569#1" type="passenger"/>
    <trip id="veh254" depart="274.13" departLane="best" from="8096707#0" to="161652141#8" type="passenger"/>
    <trip id="veh255" depart="275.21" departLane="best" from="380467044#0" to="-25913821#0" type="passenger"/>
    <trip id="veh256" depart="276.29" departLane="best" from="36775550#3" to="3076827" type="passenger"/>
    <trip id="veh257" depart="277.37" departLane="best" from="-26785806#5" to="425548223#1" type="passenger"/>
    <trip id="veh258" depart="278.45" departLane="best" from="495298306" to="2876710#2" type="passenger"/>
    <trip id="veh260" depart="280.61" departLane="best" from="4256147#0" to="-84697865#3" type="passenger"/>
    <trip id="veh261" depart="281.69" departLane="best" from="17929789#0" to="129375495#2" type="passenger"/>
    <trip id="veh263" depart="283.85" departLane="best" from="485039787" to="438328556#1" type="passenger"/>
    <trip id="veh264" depart="284.92" departLane="best" from="-26785895#3" to="8096707#0" type="passenger"/>
    <trip id="veh265" depart="286.00" departLane="best" from="3088642#1" to="4607834#0" type="passenger"/>
    <trip id="veh267" depart="288.16" departLane="best" from="4059306#0" to="8169022#0" type="passenger"/>
    <trip id="veh268" depart="289.24" departLane="best" from="-49932195#1" to="4257254#5" type="passenger"/>
    <trip id="veh269" depart="290.32" departLane="best" from="26785612#0" to="233625081#0" type="passenger"/>
    <trip id="veh270" depart="291.40" departLane="best" from="19727047" to="4059306#0" type="passenger"/>
    <trip id="veh271" depart="292.48" departLane="best" from="4592636#2" to="-26785612#1" type="passenger"/>
    <trip id="veh272" depart="293.56" departLane="best" from="217313923#0" to="30280298" type="passenger"/>
    <trip id="veh273" depart="294.64" departLane="best" from="139291982#2" to="-161652141#3" type="passenger"/>
    <trip id="veh274" depart="295.72" departLane="best" from="49932184#0" to="-3754141#1" type="passenger"/>
    <trip id="veh275" depart="296.80" departLane="best" from="-4253828#1" to="4257242#2" type="passenger"/>
    <trip id="veh276" depart="297.88" departLane="best" from="-82965853#0" to="527688915#3" type="passenger"/>
    <trip id="veh277" depart="298.96" departLane="best" from="37281126" to="-49932206" type="passenger"/>
    <trip id="veh278" depart="300.03" departLane="best" from="-129375498#0" to="7744564#0" type="passenger"/>
    <trip id="veh279" depart="301.11" departLane="best" from="-26709645#4" to="39035445" type="passenger"/>
    <trip id="veh280" depart="302.19" departLane="best" from="233625261#0" to="4253276#1" type="passenger"/>
    <trip id="veh281" depart="303.27" departLane="best" from="36775550#3" to="3128349#0" type="passenger"/>
    <trip id="veh283" depart="305.43" departLane="best" from="-26785612#21" to="-4255963#2" type="passenger"/>
    <trip id="veh284" depart="306.51" departLane="best" from="279154271#0" to="224188122" type="passenger"/>
    <trip id="veh286" depart="308.67" departLane="best" from="4068455#2" to="-81446467#1" type="passenger"/>
    <trip id="veh287" depart="309.75" departLane="best" from="3754141#2" to="-49932200#0" type="passenger"/>
    <trip id="veh288" depart="310.83" departLane="best" from="-434900022" to="-27188930#0" type="passenger"/>
    <trip id="veh289" depart="311.91" departLane="best" from="-3996989#1" to="-26997928#1" type="passenger"/>
    <trip id="veh290" depart="312.99" departLane="best" from="26709831" to="4253828#2" type="passenger"/>