<?xml version="1.0" encoding="UTF-8"?>

<!-- generated on 07/12/18 16:13:05 by SUMO polyconvert Version 0.29.0
<?xml version="1.0" encoding="UTF-8"?>

<configuration xmlns:xsi="http://www.w3.org/2001/XMLSchema-instance" xsi:noNamespaceSchemaLocation="http://sumo.dlr.de/xsd/polyconvertConfiguration.xsd">

    <input>
        <net-file value="C:\Users\CabrejasEgeaAlvaro\Dropbox\TMF_Alvero\SUMO\tests_tools\2018-07-12-16-12-56\osm.net.xml"/>
        <osm-files value="C:\Users\CabrejasEgeaAlvaro\Dropbox\TMF_Alvero\SUMO\tests_tools\2018-07-12-16-12-56\osm_bbox.osm.xml"/>
        <osm.keep-full-type value="true"/>
        <type-file value="C:\Program%20Files%20(x86)\DLR\Sumo\data\typemap\osmPolyconvert.typ.xml"/>
    </input>

    <output>
        <output-file value="C:\Users\CabrejasEgeaAlvaro\Dropbox\TMF_Alvero\SUMO\tests_tools\2018-07-12-16-12-56\osm.poly.xml"/>
    </output>

    <processing>
        <poi-layer-offset value="5"/>
    </processing>

    <report>
        <verbose value="true"/>
    </report>

</configuration>
-->

<additional xmlns:xsi="http://www.w3.org/2001/XMLSchema-instance" xsi:noNamespaceSchemaLocation="http://sumo.dlr.de/xsd/additional_file.xsd">
    <location netOffset="-696833.90,-5710220.17" convBoundary="-2059.19,-2388.40,6314.40,4394.11" origBoundary="-0.191477,51.486273,-0.072057,51.546826" projParameter="+proj=utm +zone=30 +ellps=WGS84 +datum=WGS84 +units=m +no_defs"/>

    <poly id="100201724" type="building.yes" color="255,230,230" fill="1" layer="-1.00" shape="3353.20,1697.10 3357.71,1689.17 3361.17,1683.48 3363.47,1682.85 3370.61,1686.34 3380.14,1691.46 3378.42,1694.58 3368.78,1689.99 3365.27,1698.05 3373.86,1699.90 3370.29,1707.06 3368.41,1706.18 3353.20,1697.10"/>
    <poly id="100201732" type="building.yes" color="255,230,230" fill="1" layer="-1.00" shape="3340.27,1719.30 3353.20,1697.10 3368.41,1706.18 3361.20,1721.14 3359.08,1720.76 3351.61,1719.87 3340.27,1719.30"/>
    <poly id="100203312" type="building.yes" color="255,230,230" fill="1" layer="-1.00" shape="3299.90,1880.23 3301.39,1878.13 3306.55,1881.76 3305.06,1883.86 3299.90,1880.23"/>
    <poly id="100203313" type="building.yes" color="255,230,230" fill="1" layer="-1.00" shape="3298.21,1876.66 3301.46,1872.38 3303.86,1874.19 3300.60,1878.47 3298.21,1876.66"/>
    <poly id="100260359" type="building.yes" color="255,230,230" fill="1" layer="-1.00" shape="3394.41,2121.46 3389.18,2123.10 3386.97,2116.10 3392.29,2114.42 3394.41,2121.46"/>
    <poly id="100260359#1" type="shop.hairdresser" color="237,199,255" fill="1" layer="-1.00" shape="3394.41,2121.46 3389.18,2123.10 3386.97,2116.10 3392.29,2114.42 3394.41,2121.46"/>
    <poly id="100260365" type="building.yes" color="255,230,230" fill="1" layer="-1.00" shape="3405.78,2122.52 3407.94,2129.19 3404.70,2130.24 3398.85,2132.12 3396.92,2132.73 3394.76,2126.06 3395.76,2125.73 3405.78,2122.52"/>
    <poly id="100260369" type="building.terrace" color="255,230,230" fill="1" layer="-1.00" shape="3398.85,2132.12 3399.75,2134.92 3398.21,2135.41 3399.11,2138.18 3400.53,2137.72 3401.17,2139.72 3399.46,2140.27 3400.33,2142.96 3402.17,2142.36 3403.71,2147.13 3404.59,2149.86 3401.80,2150.76 3402.89,2154.12 3414.76,2150.31 3407.94,2129.19 3404.70,2130.24 3398.85,2132.12"/>
    <poly id="100260417" type="building.yes" color="255,230,230" fill="1" layer="-1.00" shape="3373.44,2131.57 3375.66,2133.93 3381.62,2140.28 3381.32,2140.56 3365.62,2155.21 3342.59,2176.69 3338.88,2172.75 3333.77,2177.51 3328.86,2182.10 3332.08,2185.52 3324.60,2192.50 3321.58,2189.27 3313.95,2196.40 3317.00,2199.66 3310.71,2205.52 3307.85,2202.46 3306.24,2203.96 3301.39,2198.80 3329.34,2172.73 3373.44,2131.57"/>
    <poly id="100260417#1" type="tourism.hotel" color="207,245,201" fill="1" layer="-2.00" shape="3373.44,2131.57 3375.66,2133.93 3381.62,2140.28 3381.32,2140.56 3365.62,2155.21 3342.59,2176.69 3338.88,2172.75 3333.77,2177.51 3328.86,2182.10 3332.08,2185.52 3324.60,2192.50 3321.58,2189.27 3313.95,2196.40 3317.00,2199.66 3310.71,2205.52 3307.85,2202.46 3306.24,2203.96 3301.39,2198.80 3329.34,2172.73 3373.44,2131.57"/>
    <poly id="100260421" type="building.yes" color="255,230,230" fill="1" layer="-1.00" shape="3376.87,2121.65 3382.49,2127.63 3381.52,2128.53 3382.82,2129.92 3379.85,2132.70 3378.11,2134.32 3376.77,2132.90 3375.66,2133.93 3373.44,2131.57 3370.08,2127.99 3372.80,2125.45 3376.87,2121.65"/>
    <poly id="100260432" type="amenity.parking" color="184,184,179" fill="1" layer="-1.00" shape="3392.86,2131.58 3387.89,2132.90 3385.79,2134.37 3390.91,2143.69 3392.24,2147.25 3397.93,2145.63 3392.86,2131.58"/>
    <poly id="100260435" type="amenity.parking" color="184,184,179" fill="1" layer="-1.00" shape="3371.88,2161.77 3365.62,2155.21 3381.32,2140.56 3383.87,2138.15 3386.66,2135.93 3390.91,2143.69 3371.88,2161.77"/>
    <poly id="100260444" type="building.terrace" color="255,230,230" fill="1" layer="-1.00" shape="3353.86,2202.12 3333.60,2221.25 3333.03,2221.78 3326.99,2215.42 3330.97,2211.65 3328.05,2208.57 3330.52,2206.24 3333.47,2209.34 3339.16,2203.97 3336.32,2200.99 3338.69,2198.74 3341.48,2201.68 3343.37,2199.91 3340.41,2196.79 3343.01,2194.34 3346.02,2197.51 3347.84,2195.78 3353.86,2202.12"/>
    <poly id="100260450" type="building.terrace" color="255,230,230" fill="1" layer="-1.00" shape="3297.64,2199.30 3303.16,2204.85 3296.98,2209.94 3272.69,2233.39 3266.96,2241.36 3262.41,2239.35 3263.42,2238.03 3261.64,2236.77 3266.66,2228.62 3267.38,2228.49 3291.79,2203.93 3297.64,2199.30"/>
    <poly id="100260457" type="building.terrace" color="255,230,230" fill="1" layer="-1.00" shape="3289.67,2251.56 3307.68,2259.68 3308.00,2258.87 3310.99,2252.48 3311.58,2251.03 3310.04,2250.34 3312.47,2244.98 3306.98,2242.50 3304.40,2248.20 3300.86,2246.61 3303.52,2240.73 3298.11,2238.30 3295.49,2244.07 3293.47,2243.16 3289.67,2251.56"/>
    <poly id="100260465" type="building.yes" color="255,230,230" fill="1" layer="-1.00" shape="3327.51,2269.49 3329.73,2267.27 3330.99,2268.54 3333.43,2266.10 3332.18,2264.85 3333.90,2263.14 3310.99,2252.48 3308.00,2258.87 3310.05,2259.83 3309.49,2261.03 3316.40,2264.24 3317.10,2262.74 3320.38,2264.26 3319.63,2265.88 3327.51,2269.49"/>
    <poly id="100260471" type="building.terrace" color="255,230,230" fill="1" layer="-1.00" shape="3333.60,2221.25 3354.23,2242.97 3347.43,2249.40 3343.23,2244.98 3340.40,2247.65 3337.20,2244.28 3340.03,2241.60 3335.17,2236.49 3333.34,2238.21 3331.22,2235.97 3333.03,2234.27 3326.78,2227.69 3333.03,2221.78 3333.60,2221.25"/>
    <poly id="100260476" type="building.yes" color="255,230,230" fill="1" layer="-1.00" shape="3345.41,2273.17 3344.17,2275.77 3346.41,2276.83 3346.01,2277.67 3353.68,2281.31 3354.22,2280.15 3356.81,2281.38 3356.23,2282.59 3365.43,2286.97 3370.09,2277.19 3366.68,2275.57 3365.80,2277.40 3349.43,2269.63 3345.41,2273.17"/>
    <poly id="100260483" type="building.terrace" color="255,230,230" fill="1" layer="-1.00" shape="3364.67,2253.64 3387.69,2278.74 3388.97,2280.13 3388.52,2280.54 3382.93,2285.47 3381.65,2286.80 3380.42,2285.45 3366.41,2270.20 3365.43,2271.10 3356.37,2261.22 3364.67,2253.64"/>
    <poly id="100260510" type="building.terrace" color="255,230,230" fill="1" layer="-1.00" shape="3382.93,2285.47 3381.65,2286.80 3380.42,2285.45 3377.52,2291.57 3378.86,2292.21 3378.30,2293.39 3386.18,2297.09 3386.88,2295.60 3389.49,2296.82 3388.81,2298.27 3396.76,2302.02 3397.30,2300.85 3399.74,2302.00 3402.18,2303.15 3401.55,2304.49 3409.46,2308.23 3409.96,2307.19 3412.53,2308.39 3412.12,2309.25 3415.82,2310.99 3415.32,2312.03 3420.95,2314.69 3422.04,2312.39 3423.64,2313.14 3423.10,2314.29 3430.58,2317.82 3430.99,2316.94 3432.24,2317.52 3431.27,2319.55 3436.72,2322.13 3437.21,2321.10 3441.58,2323.16 3442.11,2322.03 3444.14,2322.99 3443.58,2324.17 3448.13,2326.31 3447.72,2327.17 3453.47,2329.88 3455.19,2326.11 3459.44,2319.47 3454.21,2317.43 3453.66,2318.61 3448.21,2316.05 3450.23,2311.77 3447.29,2310.39 3445.28,2314.63 3425.32,2305.22 3426.00,2303.79 3420.77,2301.32 3420.00,2302.94 3404.73,2295.74 3382.93,2285.47"/>
    <poly id="100262276" type="building.terrace" color="255,230,230" fill="1" layer="-1.00" shape="3262.15,2271.00 3267.72,2273.44 3265.35,2278.81 3268.09,2280.01 3270.09,2275.46 3273.57,2276.99 3271.58,2281.49 3276.85,2283.80 3278.75,2279.51 3282.96,2281.36 3280.98,2285.86 3283.60,2287.02 3289.36,2273.95 3265.47,2263.46 3262.70,2269.74 3262.15,2271.00"/>
    <poly id="100262277" type="building.terrace" color="255,230,230" fill="1" layer="-1.00" shape="3291.65,2274.76 3398.21,2322.37 3394.38,2330.90 3389.26,2328.62 3388.58,2330.14 3382.96,2327.63 3383.53,2326.38 3340.33,2307.08 3339.84,2308.18 3335.21,2306.12 3335.63,2305.19 3319.33,2297.90 3319.84,2296.77 3288.13,2282.60 3291.65,2274.76"/>
    <poly id="100262278" type="building.yes" color="255,230,230" fill="1" layer="-1.00" shape="3270.11,2305.95 3277.94,2309.21 3278.42,2307.89 3280.58,2308.98 3285.06,2311.17 3294.45,2315.87 3297.46,2308.05 3299.22,2302.04 3290.14,2298.38 3288.21,2302.19 3284.48,2300.27 3284.12,2298.48 3282.43,2298.58 3274.61,2294.99 3270.11,2305.95"/>
    <poly id="100262279" type="building.terrace" color="255,230,230" fill="1" layer="-1.00" shape="3245.91,2283.89 3259.57,2287.71 3260.13,2284.19 3255.27,2282.90 3256.27,2278.88 3261.46,2280.45 3262.26,2277.61 3256.57,2275.69 3258.21,2268.40 3262.70,2269.74 3265.47,2263.46 3253.06,2257.22 3245.91,2283.89"/>
    <poly id="100262280" type="building.yes" color="255,230,230" fill="1" layer="-1.00" shape="3265.25,2300.04 3264.72,2305.15 3263.53,2316.71 3262.07,2316.55 3243.76,2314.66 3245.55,2297.38 3241.83,2297.23 3242.21,2287.54 3248.22,2287.78 3248.54,2288.30 3251.83,2288.51 3251.50,2292.55 3268.10,2294.64 3266.78,2300.17 3265.25,2300.04"/>
    <poly id="100262283" type="building.yes" color="255,230,230" fill="1" layer="-1.00" shape="3251.61,2320.27 3261.39,2321.13 3260.75,2328.37 3265.11,2328.75 3264.96,2330.41 3263.59,2345.96 3258.90,2345.56 3259.78,2335.71 3250.32,2334.87 3251.61,2320.27"/>
    <poly id="100262284" type="building.yes" color="255,230,230" fill="1" layer="-1.00" shape="3238.80,2321.55 3249.35,2322.77 3247.92,2335.03 3237.37,2333.82 3238.80,2321.55"/>
    <poly id="100262285" type="building.yes" color="255,230,230" fill="1" layer="-1.00" shape="3264.94,2366.49 3235.18,2354.15 3236.12,2336.80 3248.68,2338.21 3250.32,2334.87 3259.78,2335.71 3258.90,2345.56 3258.45,2352.62 3267.30,2355.67 3265.37,2359.65 3267.37,2360.40 3264.94,2366.49"/>
    <poly id="100262285#1" type="tourism.hostel" color="207,245,201" fill="1" layer="-2.00" shape="3264.94,2366.49 3235.18,2354.15 3236.12,2336.80 3248.68,2338.21 3250.32,2334.87 3259.78,2335.71 3258.90,2345.56 3258.45,2352.62 3267.30,2355.67 3265.37,2359.65 3267.37,2360.40 3264.94,2366.49"/>
    <poly id="100262286" type="building.terrace" color="255,230,230" fill="1" layer="-1.00" shape="3264.94,2366.49 3280.56,2372.68 3283.78,2364.60 3268.15,2358.41 3267.37,2360.40 3264.94,2366.49"/>
    <poly id="100262287" type="building.yes" color="255,230,230" fill="1" layer="-1.00" shape="3268.05,2334.56 3272.54,2336.74 3285.06,2311.17 3280.58,2308.98 3278.97,2312.26 3269.28,2332.06 3268.05,2334.56"/>
    <poly id="100262288" type="amenity.parking" color="184,184,179" fill="1" layer="-1.00" shape="3269.28,2332.06 3264.96,2330.41 3265.11,2328.75 3260.75,2328.37 3261.39,2321.13 3261.71,2318.96 3262.07,2316.55 3263.53,2316.71 3264.72,2305.15 3270.11,2305.95 3277.94,2309.21 3278.97,2312.26 3269.28,2332.06"/>
    <poly id="100264369" type="amenity.pub" color="237,199,199" fill="1" layer="-1.00" shape="3184.07,2457.69 3192.76,2464.07 3193.48,2464.43 3194.54,2464.57 3195.33,2464.21 3196.09,2463.29 3201.32,2455.62 3200.95,2455.37 3192.60,2449.87 3190.51,2453.80 3187.63,2451.95 3184.88,2456.38 3184.07,2457.69"/>
    <poly id="100264369#1" type="building.yes" color="255,230,230" fill="1" layer="-1.00" shape="3184.07,2457.69 3192.76,2464.07 3193.48,2464.43 3194.54,2464.57 3195.33,2464.21 3196.09,2463.29 3201.32,2455.62 3200.95,2455.37 3192.60,2449.87 3190.51,2453.80 3187.63,2451.95 3184.88,2456.38 3184.07,2457.69"/>
    <poly id="100264370" type="amenity.restaurant" color="237,199,199" fill="1" layer="-1.00" shape="3200.95,2455.37 3204.04,2450.57 3196.05,2445.96 3195.38,2446.94 3194.51,2446.81 3192.60,2449.87 3200.95,2455.37"/>
    <poly id="100264370#1" type="building.yes" color="255,230,230" fill="1" layer="-1.00" shape="3200.95,2455.37 3204.04,2450.57 3196.05,2445.96 3195.38,2446.94 3194.51,2446.81 3192.60,2449.87 3200.95,2455.37"/>
    <poly id="100264371" type="building.yes" color="255,230,230" fill="1" layer="-1.00" shape="3204.04,2450.57 3206.62,2435.47 3198.06,2434.17 3196.73,2438.27 3193.71,2444.90 3196.05,2445.96 3204.04,2450.57"/>
    <poly id="100264372" type="building.yes" color="255,230,230" fill="1" layer="-1.00" shape="3206.62,2435.47 3207.29,2429.61 3199.17,2426.87 3199.09,2428.85 3195.92,2428.29 3195.39,2430.63 3198.55,2431.53 3198.06,2434.17 3206.62,2435.47"/>
    <poly id="100264373" type="building.yes" color="255,230,230" fill="1" layer="-1.00" shape="3207.29,2429.61 3207.72,2424.66 3207.55,2424.16 3206.83,2423.80 3196.73,2420.03 3195.59,2425.63 3199.17,2426.87 3207.29,2429.61"/>
    <poly id="100264374" type="building.terrace" color="255,230,230" fill="1" layer="-1.00" shape="3193.42,2418.11 3120.73,2389.80 3115.06,2404.19 3117.60,2405.14 3119.29,2400.58 3121.50,2401.40 3119.91,2405.67 3122.63,2406.68 3124.30,2402.23 3128.66,2403.85 3127.01,2408.28 3130.17,2409.45 3132.00,2404.52 3156.26,2413.51 3155.78,2414.78 3161.25,2416.81 3161.70,2415.61 3190.39,2426.24 3193.42,2418.11"/>
    <poly id="100264375" type="building.yes" color="255,230,230" fill="1" layer="-1.00" shape="3147.08,2440.80 3179.56,2451.90 3180.95,2447.87 3182.79,2442.49 3180.34,2441.65 3181.74,2437.56 3178.76,2436.55 3177.94,2438.94 3150.90,2429.69 3150.51,2431.11 3147.47,2439.40 3147.08,2440.80"/>
    <poly id="100264376" type="building.yes" color="255,230,230" fill="1" layer="-1.00" shape="3180.95,2447.87 3188.20,2450.60 3187.63,2451.95 3184.88,2456.38 3179.08,2452.95 3179.56,2451.90 3180.95,2447.87"/>
    <poly id="100264377" type="building.yes" color="255,230,230" fill="1" layer="-1.00" shape="3147.47,2439.40 3138.52,2436.13 3141.56,2427.88 3144.40,2428.92 3144.83,2427.75 3147.89,2428.86 3147.47,2430.00 3150.51,2431.11 3147.47,2439.40"/>
    <poly id="100264378" type="building.yes" color="255,230,230" fill="1" layer="-1.00" shape="3126.96,2418.59 3115.24,2414.65 3117.14,2409.00 3128.86,2412.94 3126.96,2418.59"/>
    <poly id="100264379" type="building.yes" color="255,230,230" fill="1" layer="-1.00" shape="3122.03,2430.62 3109.15,2426.71 3112.93,2414.50 3125.80,2418.42 3122.03,2430.62"/>
    <poly id="100264379#1" type="leisure.court" color="207,245,201" fill="1" layer="-2.00" shape="3122.03,2430.62 3109.15,2426.71 3112.93,2414.50 3125.80,2418.42 3122.03,2430.62"/>
    <poly id="100264381" type="building.yes" color="255,230,230" fill="1" layer="-1.00" shape="3098.33,2409.03 3108.90,2412.68 3111.13,2406.23 3104.57,2403.87 3098.33,2409.03"/>
    <poly id="100264382" type="building.yes" color="255,230,230" fill="1" layer="-1.00" shape="3104.57,2403.87 3120.73,2389.80 3115.06,2404.19 3113.95,2407.25 3111.13,2406.23 3104.57,2403.87"/>
    <poly id="100264383" type="building.yes" color="255,230,230" fill="1" layer="-1.00" shape="3101.63,2393.71 3104.90,2384.46 3099.53,2382.57 3099.87,2381.60 3095.83,2380.17 3095.48,2381.14 3090.26,2379.30 3089.12,2382.63 3086.95,2388.54 3101.63,2393.71"/>
    <poly id="100264384" type="building.yes" color="255,230,230" fill="1" layer="-1.00" shape="3057.56,2366.90 3088.25,2378.16 3086.91,2381.82 3089.12,2382.63 3086.95,2388.54 3086.62,2389.45 3084.10,2388.53 3083.81,2389.31 3082.69,2388.59 3068.74,2384.07 3053.41,2378.15 3057.56,2366.90"/>
    <poly id="100264385" type="building.yes" color="255,230,230" fill="1" layer="-1.00" shape="3068.74,2384.07 3066.98,2389.47 3066.30,2391.54 3064.56,2396.89 3078.52,2401.41 3082.69,2388.59 3068.74,2384.07"/>
    <poly id="100264388" type="building.yes" color="255,230,230" fill="1" layer="-1.00" shape="3066.98,2389.47 3053.43,2385.08 3047.46,2403.42 3059.21,2407.22 3064.51,2390.96 3066.30,2391.54 3066.98,2389.47"/>
    <poly id="100264389" type="building.yes" color="255,230,230" fill="1" layer="-1.00" shape="3045.44,2405.90 3048.80,2394.87 3022.14,2386.79 3022.49,2385.64 3019.66,2384.78 3018.90,2384.55 3018.44,2386.05 3015.90,2394.39 3018.95,2395.31 3018.24,2397.63 3045.44,2405.90"/>
    <poly id="100264390" type="landuse.grass" color="194,194,130" fill="1" layer="-3.00" shape="3039.95,2387.30 3042.44,2387.72 3044.32,2387.47 3046.28,2386.97 3047.88,2385.62 3049.04,2384.06 3049.98,2381.65 3050.16,2380.12 3049.45,2378.54 3047.58,2376.80 3045.19,2375.41 3042.44,2374.66 3038.32,2374.56 3035.25,2375.41 3034.09,2377.04 3033.57,2378.94 3034.00,2380.83 3034.63,2382.98 3036.03,2385.03 3037.79,2386.31 3039.95,2387.30"/>
    <poly id="100264396" type="building.yes" color="255,230,230" fill="1" layer="-1.00" shape="3020.38,2382.76 3022.64,2383.53 3026.43,2372.39 3022.64,2371.11 3022.34,2371.98 3005.63,2366.31 3002.49,2376.01 3004.89,2376.82 3007.16,2377.59 3008.22,2374.43 3013.89,2376.36 3012.62,2380.09 3018.52,2382.08 3016.59,2385.63 3018.44,2386.05 3018.90,2384.55 3019.66,2384.78 3020.38,2382.76"/>
    <poly id="100264400" type="building.yes" color="255,230,230" fill="1" layer="-1.00" shape="3007.64,2362.23 3036.30,2372.55 3040.36,2361.32 3026.89,2356.46 3011.74,2350.98 3008.80,2358.95 3007.64,2362.23"/>
    <poly id="100264404" type="building.yes" color="255,230,230" fill="1" layer="-1.00" shape="3008.80,2358.95 2990.55,2352.24 2987.58,2360.28 2981.28,2357.97 2982.80,2353.83 2984.23,2354.36 2985.35,2351.33 2983.67,2350.71 2984.72,2347.87 2984.19,2347.69 2985.01,2345.46 2983.46,2344.90 2984.86,2341.10 3011.74,2350.98 3008.80,2358.95"/>
    <poly id="100264409" type="building.yes" color="255,230,230" fill="1" layer="-1.00" shape="2977.54,2364.42 2980.07,2365.65 2988.28,2369.50 2991.37,2363.12 2986.71,2360.88 2986.11,2362.13 2980.06,2359.22 2977.54,2364.42"/>
    <poly id="100264417" type="building.yes" color="255,230,230" fill="1" layer="-1.00" shape="2984.86,2341.10 2974.08,2336.64 2970.89,2337.30 2960.60,2356.11 2974.85,2363.10 2976.75,2358.82 2973.09,2357.00 2973.92,2355.37 2975.60,2355.30 2977.04,2354.84 2978.09,2354.17 2978.40,2353.16 2978.50,2352.13 2978.30,2350.71 2976.98,2349.75 2977.82,2348.11 2983.67,2350.71 2984.72,2347.87 2984.19,2347.69 2985.01,2345.46 2983.46,2344.90 2984.86,2341.10"/>
    <poly id="100264417#1" type="tourism.hotel" color="207,245,201" fill="1" layer="-2.00" shape="2984.86,2341.10 2974.08,2336.64 2970.89,2337.30 2960.60,2356.11 2974.85,2363.10 2976.75,2358.82 2973.09,2357.00 2973.92,2355.37 2975.60,2355.30 2977.04,2354.84 2978.09,2354.17 2978.40,2353.16 2978.50,2352.13 2978.30,2350.71 2976.98,2349.75 2977.82,2348.11 2983.67,2350.71 2984.72,2347.87 2984.19,2347.69 2985.01,2345.46 2983.46,2344.90 2984.86,2341.10"/>
    <poly id="100264419" type="building.yes" color="255,230,230" fill="1" layer="-1.00" shape="2980.07,2365.65 2978.37,2369.13 2974.58,2376.83 2955.10,2367.29 2960.60,2356.11 2974.85,2363.10 2977.54,2364.42 2980.07,2365.65"/>
    <poly id="100264428" type="building.yes" color="255,230,230" fill="1" layer="-1.00" shape="2944.86,2395.07 2943.93,2397.06 2939.80,2395.13 2935.08,2405.20 2942.74,2408.78 2945.16,2403.60 2948.39,2396.71 2944.86,2395.07"/>
    <poly id="100264431" type="building.yes" color="255,230,230" fill="1" layer="-1.00" shape="2944.57,2409.78 2954.93,2414.77 2957.09,2410.35 2946.69,2405.37 2944.57,2409.78"/>
    <poly id="100264438" type="building.yes" color="255,230,230" fill="1" layer="-1.00" shape="2954.93,2414.77 2973.61,2423.84 2976.42,2417.95 2969.71,2414.79 2965.06,2412.49 2966.03,2410.51 2963.26,2409.17 2962.29,2411.14 2957.77,2408.95 2957.09,2410.35 2954.93,2414.77"/>
    <poly id="100264441" type="building.yes" color="255,230,230" fill="1" layer="-1.00" shape="2976.42,2417.95 2979.95,2410.49 2977.61,2409.40 2977.00,2410.70 2976.44,2411.89 2972.06,2409.82 2969.71,2414.79 2976.42,2417.95"/>
    <poly id="100265639" type="building.apartments" color="255,230,230" fill="1" layer="-1.00" shape="2936.48,2178.88 2938.91,2169.51 2937.02,2169.02 2938.41,2163.66 2943.39,2164.95 2944.39,2161.08 2939.00,2159.69 2940.20,2155.09 2946.54,2156.72 2946.74,2155.93 2954.22,2157.85 2952.64,2163.93 2956.46,2164.92 2957.85,2159.55 2984.35,2166.37 2982.85,2172.21 2987.39,2173.38 2988.71,2168.28 2992.78,2169.33 2992.13,2171.86 2999.03,2173.63 3000.99,2166.08 2996.78,2165.00 2997.65,2161.63 2994.38,2160.79 2994.71,2159.49 2985.05,2157.00 2984.83,2157.85 2980.56,2156.75 2980.70,2156.22 2978.62,2155.68 2978.83,2154.84 2969.04,2152.32 2968.79,2153.27 2963.22,2151.83 2963.51,2150.73 2954.28,2148.36 2954.03,2149.31 2944.03,2146.74 2943.71,2147.96 2938.01,2146.49 2937.74,2147.55 2936.57,2152.02 2932.99,2151.10 2932.03,2154.78 2930.76,2154.45 2928.57,2162.93 2927.43,2162.64 2924.05,2175.67 2936.48,2178.88"/>
    <poly id="100265640" type="building.yes" color="255,230,230" fill="1" layer="-1.00" shape="2929.50,2192.41 2927.42,2191.85 2927.09,2193.08 2925.37,2192.70 2917.42,2190.41 2921.09,2177.55 2934.19,2181.05 2932.19,2188.47 2930.66,2188.07 2929.50,2192.41"/>
    <poly id="100265641" type="building.yes" color="255,230,230" fill="1" layer="-1.00" shape="2917.42,2190.41 2912.49,2207.38 2920.71,2209.76 2921.11,2208.65 2922.32,2203.87 2922.95,2202.02 2925.35,2202.71 2926.84,2197.58 2924.18,2196.81 2925.37,2192.70 2917.42,2190.41"/>
    <poly id="100265642" type="building.yes" color="255,230,230" fill="1" layer="-1.00" shape="2921.11,2208.65 2942.09,2213.95 2946.05,2198.35 2941.23,2197.12 2940.93,2198.28 2935.58,2196.92 2935.86,2195.87 2930.70,2194.57 2927.98,2205.30 2922.32,2203.87 2921.11,2208.65"/>
    <poly id="100265643" type="building.yes" color="255,230,230" fill="1" layer="-1.00" shape="2932.63,2205.89 2938.67,2207.42 2939.83,2202.85 2933.79,2201.32 2932.63,2205.89"/>
    <poly id="100265645" type="building.garages" color="255,230,230" fill="1" layer="-1.00" shape="2936.38,2191.62 2947.57,2194.63 2947.09,2196.36 2953.55,2198.10 2955.47,2191.00 2937.82,2186.27 2936.38,2191.62"/>
    <poly id="100265646" type="building.garages" color="255,230,230" fill="1" layer="-1.00" shape="2956.64,2177.44 2954.48,2184.81 2959.13,2186.16 2958.62,2187.92 2962.00,2188.90 2961.48,2190.70 2966.39,2192.12 2968.17,2186.03 2965.36,2182.53 2961.22,2179.63 2956.64,2177.44"/>
    <poly id="100265647" type="building.apartments" color="255,230,230" fill="1" layer="-1.00" shape="2944.39,2213.48 2945.09,2213.68 2961.21,2218.09 2960.85,2219.41 2970.76,2222.12 2971.08,2220.97 2987.87,2225.55 2987.97,2225.20 2998.13,2227.97 2998.45,2226.84 3000.91,2227.51 3002.01,2223.52 2997.29,2219.23 2994.44,2218.45 2994.85,2216.95 2985.26,2214.34 2984.96,2215.42 2980.50,2214.19 2981.36,2211.04 2978.55,2210.28 2977.68,2213.46 2959.68,2208.54 2960.70,2204.83 2956.89,2203.79 2956.74,2204.37 2955.88,2207.49 2951.85,2206.40 2952.20,2205.12 2947.07,2203.72 2944.39,2213.48"/>
    <poly id="100265650" type="building.apartments" color="255,230,230" fill="1" layer="-1.00" shape="3002.01,2223.52 3004.50,2224.20 3005.26,2221.45 3005.92,2221.63 3006.72,2218.70 3009.30,2219.40 3012.88,2206.36 3009.62,2205.48 3010.43,2202.52 3011.16,2202.72 3012.28,2198.64 3013.61,2199.01 3016.28,2189.28 3014.63,2188.84 3018.96,2173.32 3009.51,2170.73 3008.11,2175.82 3009.29,2176.14 3008.17,2180.22 3005.29,2179.43 3004.59,2181.98 3007.50,2182.78 3002.91,2199.49 2999.50,2198.56 2998.41,2202.52 3001.63,2203.40 2997.29,2219.23 3002.01,2223.52"/>
    <poly id="100265653" type="building.yes" color="255,230,230" fill="1" layer="-1.00" shape="3019.44,2172.01 3017.61,2171.43 3019.90,2164.27 3029.05,2167.17 3026.74,2174.35 3019.44,2172.01"/>
    <poly id="100265656" type="landuse.grass" color="194,194,130" fill="1" layer="-3.00" shape="3012.88,2206.36 3014.25,2206.79 3015.69,2205.31 3019.24,2204.92 3029.55,2176.32 3026.34,2175.17 3018.96,2173.32 3014.63,2188.84 3016.28,2189.28 3013.61,2199.01 3012.28,2198.64 3011.16,2202.72 3010.43,2202.52 3009.62,2205.48 3012.88,2206.36"/>
    <poly id="100265657" type="amenity.parking" color="184,184,179" fill="1" layer="-1.00" shape="2992.29,2193.38 3001.47,2195.60 3003.79,2186.06 2994.29,2183.98 2992.29,2193.38"/>
    <poly id="100265658" type="amenity.parking" color="184,184,179" fill="1" layer="-1.00" shape="2985.31,2206.19 2982.95,2212.44 2995.35,2214.71 2997.53,2204.75 2990.46,2201.97 2988.89,2204.48 2985.31,2206.19"/>
    <poly id="100265659" type="amenity.parking" color="184,184,179" fill="1" layer="-1.00" shape="2989.43,2179.76 2988.77,2188.38 2984.66,2187.58 2978.44,2184.74 2972.84,2180.63 2977.04,2175.27 2978.54,2176.47 2983.81,2178.88 2989.43,2179.76"/>
    <poly id="100265660" type="amenity.parking" color="184,184,179" fill="1" layer="-1.00" shape="2974.61,2173.36 2971.76,2177.19 2968.66,2175.53 2961.19,2175.64 2960.04,2169.88 2964.80,2169.29 2969.42,2169.10 2972.71,2169.98 2974.61,2173.36"/>
    <poly id="100265661" type="amenity.parking" color="184,184,179" fill="1" layer="-1.00" shape="2943.66,2181.19 2939.58,2180.21 2936.48,2178.88 2938.91,2169.51 2947.93,2172.30 2945.58,2174.61 2943.80,2177.67 2943.66,2181.19"/>
    <poly id="100265663" type="landuse.grass" color="194,194,130" fill="1" layer="-3.00" shape="2937.74,2147.55 2930.98,2145.87 2932.08,2141.94 2936.59,2139.49 2951.08,2143.76 2972.35,2149.70 3002.93,2158.43 3000.99,2166.08 2996.78,2165.00 2997.65,2161.63 2994.38,2160.79 2994.71,2159.49 2985.05,2157.00 2984.83,2157.85 2980.56,2156.75 2980.70,2156.22 2978.62,2155.68 2978.83,2154.84 2969.04,2152.32 2968.79,2153.27 2963.22,2151.83 2963.51,2150.73 2954.28,2148.36 2954.03,2149.31 2944.03,2146.74 2943.71,2147.96 2938.01,2146.49 2937.74,2147.55"/>
    <poly id="100265664" type="landuse.grass" color="194,194,130" fill="1" layer="-3.00" shape="2944.48,2216.67 2945.09,2213.68 2961.21,2218.09 2960.85,2219.41 2970.76,2222.12 2971.08,2220.97 2987.87,2225.55 2987.97,2225.20 2998.13,2227.97 2997.26,2232.35 2944.48,2216.67"/>
    <poly id="100265665" type="amenity.parking" color="184,184,179" fill="1" layer="-1.00" shape="2964.47,2201.12 2966.39,2192.12 2961.48,2190.70 2958.49,2193.72 2953.55,2198.10 2951.78,2200.28 2953.35,2203.67 2956.74,2204.37 2956.89,2203.79 2959.95,2201.09 2964.47,2201.12"/>
    <poly id="100266484" type="building.terrace" color="255,230,230" fill="1" layer="-1.00" shape="2552.10,2049.10 2625.71,2097.72 2631.99,2088.74 2632.59,2087.84 2558.16,2039.03 2552.10,2049.10"/>
    <poly id="100266485" type="building.yes" color="255,230,230" fill="1" layer="-1.00" shape="2625.71,2097.72 2641.89,2108.40 2644.89,2098.34 2636.50,2092.68 2637.18,2091.95 2631.99,2088.74 2625.71,2097.72"/>
    <poly id="100266487" type="building.yes" color="255,230,230" fill="1" layer="-1.00" shape="2644.89,2098.34 2645.41,2096.64 2646.51,2093.08 2640.04,2088.37 2637.18,2091.95 2636.50,2092.68 2644.89,2098.34"/>
    <poly id="100266488" type="building.yes" color="255,230,230" fill="1" layer="-1.00" shape="2646.51,2093.08 2648.94,2086.66 2641.24,2083.28 2638.45,2087.33 2640.04,2088.37 2646.51,2093.08"/>
    <poly id="100266489" type="building.yes" color="255,230,230" fill="1" layer="-1.00" shape="2643.29,2075.97 2646.53,2068.30 2644.84,2067.08 2645.50,2066.18 2627.69,2053.22 2629.13,2051.24 2627.54,2050.08 2629.00,2048.09 2619.90,2041.48 2619.70,2041.75 2618.47,2040.86 2615.80,2044.51 2610.04,2040.35 2611.85,2035.37 2585.04,2025.69 2582.40,2032.97 2593.67,2037.04 2590.72,2045.17 2594.74,2046.62 2597.63,2038.64 2604.74,2041.22 2601.95,2045.00 2610.11,2050.94 2607.37,2054.68 2605.88,2056.72 2623.04,2069.21 2626.27,2064.78 2636.30,2072.08 2636.87,2071.30 2643.29,2075.97"/>
    <poly id="100266489#1" type="tourism.hostel" color="207,245,201" fill="1" layer="-2.00" shape="2643.29,2075.97 2646.53,2068.30 2644.84,2067.08 2645.50,2066.18 2627.69,2053.22 2629.13,2051.24 2627.54,2050.08 2629.00,2048.09 2619.90,2041.48 2619.70,2041.75 2618.47,2040.86 2615.80,2044.51 2610.04,2040.35 2611.85,2035.37 2585.04,2025.69 2582.40,2032.97 2593.67,2037.04 2590.72,2045.17 2594.74,2046.62 2597.63,2038.64 2604.74,2041.22 2601.95,2045.00 2610.11,2050.94 2607.37,2054.68 2605.88,2056.72 2623.04,2069.21 2626.27,2064.78 2636.30,2072.08 2636.87,2071.30 2643.29,2075.97"/>
    <poly id="100266490" type="building.yes" color="255,230,230" fill="1" layer="-1.00" shape="2658.21,2063.78 2672.33,2029.78 2664.20,2026.48 2661.75,2032.82 2654.17,2029.91 2652.29,2034.77 2647.46,2046.25 2654.77,2049.26 2650.14,2060.44 2658.21,2063.78"/>
    <poly id="100266491" type="building.yes" color="255,230,230" fill="1" layer="-1.00" shape="2652.29,2034.77 2647.19,2032.81 2647.65,2031.61 2644.67,2030.47 2648.55,2020.43 2664.20,2026.48 2661.75,2032.82 2654.17,2029.91 2652.29,2034.77"/>
    <poly id="100266492" type="building.yes" color="255,230,230" fill="1" layer="-1.00" shape="2620.64,2009.64 2617.30,2018.17 2616.20,2021.10 2618.08,2021.83 2616.57,2025.76 2620.00,2027.07 2621.54,2023.09 2627.94,2025.55 2626.36,2029.65 2629.71,2030.94 2631.36,2026.66 2637.57,2029.04 2636.18,2032.64 2640.72,2034.39 2642.18,2030.62 2644.30,2031.43 2644.67,2030.47 2648.55,2020.43 2620.64,2009.64"/>
    <poly id="100266493" type="building.yes" color="255,230,230" fill="1" layer="-1.00" shape="2617.30,2018.17 2610.37,2015.65 2613.84,2007.11 2620.64,2009.64 2617.30,2018.17"/>
    <poly id="100266494" type="building.office" color="255,230,230" fill="1" layer="-1.00" shape="2610.37,2015.65 2605.34,2013.61 2603.90,2017.32 2587.65,2010.51 2578.85,2007.07 2580.41,2002.56 2574.20,2000.19 2577.19,1992.28 2613.84,2007.11 2610.37,2015.65"/>
    <poly id="100266495" type="building.yes" color="255,230,230" fill="1" layer="-1.00" shape="2603.90,2017.32 2601.71,2022.52 2585.46,2015.73 2587.65,2010.51 2603.90,2017.32"/>