<?xml version="1.0" encoding="UTF-8"?>

<!-- generated on Tue  7 Aug 15:47:03 2018 by Netedit Version 0.32.0
<?xml version="1.0" encoding="UTF-8"?>

<configuration xmlns:xsi="http://www.w3.org/2001/XMLSchema-instance" xsi:noNamespaceSchemaLocation="http://sumo.dlr.de/xsd/netconvertConfiguration.xsd">

    <output>
        <output-file value="/Users/acabrejasegea/sumo-0.32/data/Networks/doublecross_random/doublecross_random.net.xml"/>
    </output>

    <processing>
        <no-turnarounds value="true"/>
        <offset.disable-normalization value="true"/>
    </processing>

</configuration>
-->

<net version="0.27" xmlns:xsi="http://www.w3.org/2001/XMLSchema-instance" xsi:noNamespaceSchemaLocation="http://sumo.dlr.de/xsd/net_file.xsd">

    <location netOffset="0.00,0.00" convBoundary="-500.00,-500.00,1000.00,500.00" origBoundary="10000000000.00,10000000000.00,-10000000000.00,-10000000000.00" projParameter="!"/>

    <edge id=":gneJ0_0" function="internal">
        <lane id=":gneJ0_0_0" index="0" speed="13.89" length="9.50" shape="-1.65,4.75 -1.65,-4.75"/>
    </edge>
    <edge id=":gneJ0_1" function="internal">
        <lane id=":gneJ0_1_0" index="0" speed="13.89" length="9.50" shape="4.75,1.65 -4.75,1.65"/>
    </edge>
    <edge id=":gneJ0_2" function="internal">
        <lane id=":gneJ0_2_0" index="0" speed="13.89" length="9.50" shape="1.65,-4.75 1.65,4.75"/>
    </edge>
    <edge id=":gneJ0_3" function="internal">
        <lane id=":gneJ0_3_0" index="0" speed="13.89" length="9.50" shape="-4.75,-1.65 4.75,-1.65"/>
    </edge>
    <edge id=":gneJ4_0" function="internal">
        <lane id=":gneJ4_0_0" index="0" speed="13.89" length="9.50" shape="498.35,4.75 498.35,-4.75"/>
    </edge>
    <edge id=":gneJ4_1" function="internal">
        <lane id=":gneJ4_1_0" index="0" speed="13.89" length="9.50" shape="504.75,1.65 495.25,1.65"/>
    </edge>
    <edge id=":gneJ4_2" function="internal">
        <lane id=":gneJ4_2_0" index="0" speed="13.89" length="9.50" shape="501.65,-4.75 501.65,4.75"/>
    </edge>
    <edge id=":gneJ4_3" function="internal">
        <lane id=":gneJ4_3_0" index="0" speed="13.89" length="9.50" shape="495.25,-1.65 504.75,-1.65"/>
    </edge>

    <edge id="-gneE0" from="gneJ1" to="gneJ0" priority="1">
        <lane id="-gneE0_0" index="0" speed="13.89" length="495.25" shape="-1.65,500.00 -1.65,4.75"/>
    </edge>
    <edge id="-gneE1" from="gneJ2" to="gneJ0" priority="1">
        <lane id="-gneE1_0" index="0" speed="13.89" length="495.25" shape="1.65,-500.00 1.65,-4.75"/>
    </edge>
    <edge id="-gneE2" from="gneJ3" to="gneJ0" priority="1">
        <lane id="-gneE2_0" index="0" speed="13.89" length="495.25" shape="-500.00,-1.65 -4.75,-1.65"/>
    </edge>
    <edge id="-gneE3" from="gneJ4" to="gneJ0" priority="1">
        <lane id="-gneE3_0" index="0" speed="13.89" length="490.50" shape="495.25,1.65 4.75,1.65"/>
    </edge>
    <edge id="-gneE4" from="gneJ5" to="gneJ4" priority="1">
        <lane id="-gneE4_0" index="0" speed="13.89" length="495.25" shape="498.35,500.00 498.35,4.75"/>
    </edge>
    <edge id="-gneE5" from="gneJ6" to="gneJ4" priority="1">
        <lane id="-gneE5_0" index="0" speed="13.89" length="495.25" shape="501.65,-500.00 501.65,-4.75"/>
    </edge>
    <edge id="-gneE7" from="gneJ9" to="gneJ4" priority="1">
        <lane id="-gneE7_0" index="0" speed="13.89" length="495.25" shape="1000.00,1.65 504.75,1.65"/>
    </edge>
    <edge id="gneE0" from="gneJ0" to="gneJ1" priority="1">
        <lane id="gneE0_0" index="0" speed="13.89" length="495.25" shape="1.65,4.75 1.65,500.00"/>
    </edge>
    <edge id="gneE1" from="gneJ0" to="gneJ2" priority="1">
        <lane id="gneE1_0" index="0" speed="13.89" length="495.25" shape="-1.65,-4.75 -1.65,-500.00"/>
    </edge>
    <edge id="gneE2" from="gneJ0" to="gneJ3" priority="1">
        <lane id="gneE2_0" index="0" speed="13.89" length="495.25" shape="-4.75,1.65 -500.00,1.65"/>
    </edge>
    <edge id="gneE3" from="gneJ0" to="gneJ4" priority="1">
        <lane id="gneE3_0" index="0" speed="13.89" length="490.50" shape="4.75,-1.65 495.25,-1.65"/>
    </edge>
    <edge id="gneE4" from="gneJ4" to="gneJ5" priority="1">
        <lane id="gneE4_0" index="0" speed="13.89" length="495.25" shape="501.65,4.75 501.65,500.00"/>
    </edge>
    <edge id="gneE5" from="gneJ4" to="gneJ6" priority="1">
        <lane id="gneE5_0" index="0" speed="13.89" length="495.25" shape="498.35,-4.75 498.35,-500.00"/>
    </edge>
    <edge id="gneE7" from="gneJ4" to="gneJ9" priority="1">
        <lane id="gneE7_0" index="0" speed="13.89" length="495.25" shape="504.75,-1.65 1000.00,-1.65"/>
    </edge>

    <tlLogic id="gneJ0" type="static" programID="0" offset="0">
        <phase duration="42" state="GrGr"/>
        <phase duration="3" state="yryr"/>
        <phase duration="42" state="rGrG"/>
        <phase duration="3" state="ryry"/>
    </tlLogic>
    <tlLogic id="gneJ4" type="static" programID="0" offset="0">
        <phase duration="42" state="GrGr"/>
        <phase duration="3" state="yryr"/>
        <phase duration="42" state="rGrG"/>
        <phase duration="3" state="ryry"/>
    </tlLogic>

    <junction id="gneJ0" type="traffic_light" x="0.00" y="0.00" incLanes="-gneE0_0 -gneE3_0 -gneE1_0 -gneE2_0" intLanes=":gneJ0_0_0 :gneJ0_1_0 :gneJ0_2_0 :gneJ0_3_0" shape="-3.25,4.75 3.25,4.75 4.75,3.25 4.75,-3.25 3.25,-4.75 -3.25,-4.75 -4.75,-3.25 -4.75,3.25">
        <request index="0" response="0000" foes="1010" cont="0"/>
        <request index="1" response="0101" foes="0101" cont="0"/>
        <request index="2" response="0000" foes="1010" cont="0"/>
        <request index="3" response="0101" foes="0101" cont="0"/>
    </junction>
    <junction id="gneJ1" type="dead_end" x="0.00" y="500.00" incLanes="gneE0_0" intLanes="" shape="-0.05,500.00 3.25,500.00 0.05,500.00"/>
    <junction id="gneJ2" type="dead_end" x="0.00" y="-500.00" incLanes="gneE1_0" intLanes="" shape="0.05,-500.00 -3.25,-500.00 -0.05,-500.00"/>
    <junction id="gneJ3" type="dead_end" x="-500.00" y="0.00" incLanes="gneE2_0" intLanes="" shape="-500.00,-0.05 -500.00,3.25 -500.00,0.05"/>
    <junction id="gneJ4" type="traffic_light" x="500.00" y="0.00" incLanes="-gneE4_0 -gneE7_0 -gneE5_0 gneE3_0" intLanes=":gneJ4_0_0 :gneJ4_1_0 :gneJ4_2_0 :gneJ4_3_0" shape="496.75,4.75 503.25,4.75 504.75,3.25 504.75,-3.25 503.25,-4.75 496.75,-4.75 495.25,-3.25 495.25,3.25">
        <request index="0" response="0000" foes="1010" cont="0"/>
        <request index="1" response="0101" foes="0101" cont="0"/>
        <request index="2" response="0000" foes="1010" cont="0"/>
        <request index="3" response="0101" foes="0101" cont="0"/>
    </junction>
    <junction id="gneJ5" type="dead_end" x="500.00" y="500.00" incLanes="gneE4_0" intLanes="" shape="499.95,500.00 503.25,500.00 500.05,500.00"/>
    <junction id="gneJ6" type="dead_end" x="500.00" y="-500.00" incLanes="gneE5_0" intLanes="" shape="500.05,-500.00 496.75,-500.00 499.95,-500.00"/>
    <junction id="gneJ9" type="dead_end" x="1000.00" y="0.00" incLanes="gneE7_0" intLanes="" shape="1000.00,0.05 1000.00,-3.25 1000.00,-0.05"/>

    <connection from="-gneE0" to="gneE1" fromLane="0" toLane="0" via=":gneJ0_0_0" tl="gneJ0" linkIndex="0" dir="s" state="o"/>
    <connection from="-gneE1" to="gneE0" fromLane="0" toLane="0" via=":gneJ0_2_0" tl="gneJ0" linkIndex="2" dir="s" state="o"/>
    <connection from="-gneE2" to="gneE3" fromLane="0" toLane="0" via=":gneJ0_3_0" tl="gneJ0" linkIndex="3" dir="s" state="o"/>
    <connection from="-gneE3" to="gneE2" fromLane="0" toLane="0" via=":gneJ0_1_0" tl="gneJ0" linkIndex="1" dir="s" state="o"/>
    <connection from="-gneE4" to="gneE5" fromLane="0" toLane="0" via=":gneJ4_0_0" tl="gneJ4" linkIndex="0" dir="s" state="o"/>
    <connection from="-gneE5" to="gneE4" fromLane="0" toLane="0" via=":gneJ4_2_0" tl="gneJ4" linkIndex="2" dir="s" state="o"/>
    <connection from="-gneE7" to="-gneE3" fromLane="0" toLane="0" via=":gneJ4_1_0" tl="gneJ4" linkIndex="1" dir="s" state="o"/>
    <connection from="gneE3" to="gneE7" fromLane="0" toLane="0" via=":gneJ4_3_0" tl="gneJ4" linkIndex="3" dir="s" state="o"/>

    <connection from=":gneJ0_0" to="gneE1" fromLane="0" toLane="0" dir="s" state="M"/>
    <connection from=":gneJ0_1" to="gneE2" fromLane="0" toLane="0" dir="s" state="M"/>
    <connection from=":gneJ0_2" to="gneE0" fromLane="0" toLane="0" dir="s" state="M"/>
    <connection from=":gneJ0_3" to="gneE3" fromLane="0" toLane="0" dir="s" state="M"/>
    <connection from=":gneJ4_0" to="gneE5" fromLane="0" toLane="0" dir="s" state="M"/>
    <connection from=":gneJ4_1" to="-gneE3" fromLane="0" toLane="0" dir="s" state="M"/>
    <connection from=":gneJ4_2" to="gneE4" fromLane="0" toLane="0" dir="s" state="M"/>
    <connection from=":gneJ4_3" to="gneE7" fromLane="0" toLane="0" dir="s" state="M"/>

</net>
