<?xml version="1.0" encoding="UTF-8"?>

<!-- generated on Tue Aug  7 15:48:33 2018 by SUMO duarouter Version 0.32.0
<?xml version="1.0" encoding="UTF-8"?>

<configuration xmlns:xsi="http://www.w3.org/2001/XMLSchema-instance" xsi:noNamespaceSchemaLocation="http://sumo.dlr.de/xsd/duarouterConfiguration.xsd">

    <input>
        <net-file value="doublecross_random.net.xml"/>
        <route-files value="trips.trips.xml"/>
    </input>

    <output>
        <output-file value="doublecross_random.trips.xml"/>
        <alternatives-output value="doublecross_random.trips.alt.xml"/>
    </output>

    <processing>
        <ignore-errors value="true"/>
    </processing>

    <time>
        <begin value="0"/>
        <end value="200.0"/>
    </time>

    <report>
        <no-warnings value="true"/>
        <no-step-log value="true"/>
    </report>

</configuration>
-->

<routes xmlns:xsi="http://www.w3.org/2001/XMLSchema-instance" xsi:noNamespaceSchemaLocation="http://sumo.dlr.de/xsd/routes_file.xsd">
    <vehicle id="3" depart="3.00">
        <route edges="-gneE3"/>
    </vehicle>
    <vehicle id="8" depart="8.00">
        <route edges="-gneE7 -gneE3"/>
    </vehicle>
    <vehicle id="9" depart="9.00">
        <route edges="-gneE3"/>
    </vehicle>
    <vehicle id="12" depart="12.00">
        <route edges="gneE3"/>
    </vehicle>
    <vehicle id="21" depart="21.00">
        <route edges="-gneE7 -gneE3 gneE2"/>
    </vehicle>
    <vehicle id="22" depart="22.00">
        <route edges="-gneE7 -gneE3"/>
    </vehicle>
    <vehicle id="24" depart="24.00">
        <route edges="-gneE2 gneE3 gneE7"/>
    </vehicle>
    <vehicle id="33" depart="33.00">
        <route edges="gneE3"/>
    </vehicle>
    <vehicle id="44" depart="44.00">
        <route edges="-gneE1 gneE0"/>
    </vehicle>
    <vehicle id="50" depart="50.00">
        <route edges="-gneE0 gneE1"/>
    </vehicle>
    <vehicle id="66" depart="66.00">
        <route edges="gneE3 gneE7"/>
    </vehicle>
    <vehicle id="67" depart="67.00">
        <route edges="-gneE2 gneE3 gneE7"/>
    </vehicle>
    <vehicle id="70" depart="70.00">
        <route edges="-gneE0 gneE1"/>
    </vehicle>
    <vehicle id="72" depart="72.00">
        <route edges="-gneE2 gneE3 gneE7"/>
    </vehicle>
    <vehicle id="73" depart="73.00">
        <route edges="-gneE1 gneE0"/>
    </vehicle>
    <vehicle id="82" depart="82.00">
        <route edges="-gneE3 gneE2"/>
    </vehicle>
    <vehicle id="92" depart="92.00">
        <route edges="-gneE3"/>
    </vehicle>
    <vehicle id="93" depart="93.00">
        <route edges="gneE3"/>
    </vehicle>
    <vehicle id="106" depart="106.00">
        <route edges="-gneE4 gneE5"/>
    </vehicle>
    <vehicle id="111" depart="111.00">
        <route edges="-gneE7 -gneE3 gneE2"/>
    </vehicle>
    <vehicle id="115" depart="115.00">
        <route edges="-gneE3 gneE2"/>
    </vehicle>
    <vehicle id="117" depart="117.00">
        <route edges="gneE3"/>
    </vehicle>
    <vehicle id="118" depart="118.00">
        <route edges="-gneE4 gneE5"/>
    </vehicle>
    <vehicle id="125" depart="125.00">
        <route edges="-gneE2 gneE3"/>
    </vehicle>
    <vehicle id="128" depart="128.00">
        <route edges="-gneE3"/>
    </vehicle>
    <vehicle id="136" depart="136.00">
        <route edges="-gneE7 -gneE3 gneE2"/>
    </vehicle>
    <vehicle id="149" depart="149.00">
        <route edges="-gneE5 gneE4"/>
    </vehicle>
    <vehicle id="156" depart="156.00">
        <route edges="-gneE7 -gneE3"/>
    </vehicle>
    <vehicle id="157" depart="157.00">
        <route edges="-gneE1 gneE0"/>
    </vehicle>
    <vehicle id="163" depart="163.00">
        <route edges="-gneE2 gneE3"/>
    </vehicle>
    <vehicle id="166" depart="166.00">
        <route edges="-gneE1 gneE0"/>
    </vehicle>
    <vehicle id="186" depart="186.00">
        <route edges="-gneE1 gneE0"/>
    </vehicle>
    <vehicle id="188" depart="188.00">
        <route edges="-gneE2 gneE3"/>
    </vehicle>
    <vehicle id="191" depart="191.00">
        <route edges="-gneE2 gneE3"/>
    </vehicle>
    <vehicle id="199" depart="199.00">
        <route edges="-gneE5 gneE4"/>
    </vehicle>
</routes>
