<?xml version="1.0" encoding="UTF-8"?>

<!-- generated on Tue  7 Aug 15:59:44 2018 by Netedit Version 0.32.0
<?xml version="1.0" encoding="UTF-8"?>

<configuration xmlns:xsi="http://www.w3.org/2001/XMLSchema-instance" xsi:noNamespaceSchemaLocation="http://sumo.dlr.de/xsd/netconvertConfiguration.xsd">

    <input>
        <sumo-net-file value="/Users/acabrejasegea/sumo-0.32/data/Networks/cross_straight_random/cross_straight_random.net.xml"/>
    </input>

    <output>
        <output-file value="/Users/acabrejasegea/sumo-0.32/data/Networks/cross_straight_random/cross_straight_random.net.xml"/>
    </output>

    <processing>
        <no-turnarounds value="true"/>
        <offset.disable-normalization value="true"/>
        <lefthand value="false"/>
        <junctions.corner-detail value="0"/>
        <rectangular-lane-cut value="false"/>
        <walkingareas value="false"/>
    </processing>

</configuration>
-->

<net version="0.27" xmlns:xsi="http://www.w3.org/2001/XMLSchema-instance" xsi:noNamespaceSchemaLocation="http://sumo.dlr.de/xsd/net_file.xsd">

    <location netOffset="0.00,0.00" convBoundary="-500.00,-500.00,500.00,500.00" origBoundary="-10000000000.00,-10000000000.00,10000000000.00,10000000000.00" projParameter="!"/>

    <edge id=":gneJ1_0" function="internal">
        <lane id=":gneJ1_0_0" index="0" speed="13.89" length="9.50" shape="-1.65,4.75 -1.65,-4.75"/>
    </edge>
    <edge id=":gneJ1_1" function="internal">
        <lane id=":gneJ1_1_0" index="0" speed="13.89" length="9.50" shape="4.75,1.65 -4.75,1.65"/>
    </edge>
    <edge id=":gneJ1_2" function="internal">
        <lane id=":gneJ1_2_0" index="0" speed="13.89" length="9.50" shape="1.65,-4.75 1.65,4.75"/>
    </edge>
    <edge id=":gneJ1_3" function="internal">
        <lane id=":gneJ1_3_0" index="0" speed="13.89" length="9.50" shape="-4.75,-1.65 4.75,-1.65"/>
    </edge>

    <edge id="-gneE0" from="gneJ1" to="gneJ0" priority="1">
        <lane id="-gneE0_0" index="0" speed="13.89" length="495.25" shape="-4.75,1.65 -500.00,1.65"/>
    </edge>
    <edge id="-gneE1" from="gneJ2" to="gneJ1" priority="1">
        <lane id="-gneE1_0" index="0" speed="13.89" length="495.25" shape="500.00,1.65 4.75,1.65"/>
    </edge>
    <edge id="-gneE2" from="gneJ1" to="gneJ3" priority="1">
        <lane id="-gneE2_0" index="0" speed="13.89" length="495.25" shape="1.65,4.75 1.65,500.00"/>
    </edge>
    <edge id="-gneE3" from="gneJ4" to="gneJ1" priority="1">
        <lane id="-gneE3_0" index="0" speed="13.89" length="495.25" shape="1.65,-500.00 1.65,-4.75"/>
    </edge>
    <edge id="gneE0" from="gneJ0" to="gneJ1" priority="1">
        <lane id="gneE0_0" index="0" speed="13.89" length="495.25" shape="-500.00,-1.65 -4.75,-1.65"/>
    </edge>
    <edge id="gneE1" from="gneJ1" to="gneJ2" priority="1">
        <lane id="gneE1_0" index="0" speed="13.89" length="495.25" shape="4.75,-1.65 500.00,-1.65"/>
    </edge>
    <edge id="gneE2" from="gneJ3" to="gneJ1" priority="1">
        <lane id="gneE2_0" index="0" speed="13.89" length="495.25" shape="-1.65,500.00 -1.65,4.75"/>
    </edge>
    <edge id="gneE3" from="gneJ1" to="gneJ4" priority="1">
        <lane id="gneE3_0" index="0" speed="13.89" length="495.25" shape="-1.65,-4.75 -1.65,-500.00"/>
    </edge>

    <tlLogic id="gneJ1" type="static" programID="0" offset="0">
        <phase duration="42" state="GrGr"/>
        <phase duration="3" state="yryr"/>
        <phase duration="42" state="rGrG"/>
        <phase duration="3" state="ryry"/>
    </tlLogic>
    <tlLogic id="gneJ1" type="static" programID="1" offset="0">
        <phase duration="42" state="GrGr"/>
        <phase duration="3" state="yryr"/>
        <phase duration="42" state="rGrG"/>
        <phase duration="3" state="ryry"/>
    </tlLogic>

    <junction id="gneJ0" type="dead_end" x="-500.00" y="0.00" incLanes="-gneE0_0" intLanes="" shape="-500.00,-0.05 -500.00,3.25 -500.00,0.05"/>
    <junction id="gneJ1" type="traffic_light" x="0.00" y="0.00" incLanes="gneE2_0 -gneE1_0 -gneE3_0 gneE0_0" intLanes=":gneJ1_0_0 :gneJ1_1_0 :gneJ1_2_0 :gneJ1_3_0" shape="-3.25,4.75 3.25,4.75 4.75,3.25 4.75,-3.25 3.25,-4.75 -3.25,-4.75 -4.75,-3.25 -4.75,3.25">
        <request index="0" response="0000" foes="1010" cont="0"/>
        <request index="1" response="0101" foes="0101" cont="0"/>
        <request index="2" response="0000" foes="1010" cont="0"/>
        <request index="3" response="0101" foes="0101" cont="0"/>
    </junction>
    <junction id="gneJ2" type="dead_end" x="500.00" y="0.00" incLanes="gneE1_0" intLanes="" shape="500.00,0.05 500.00,-3.25 500.00,-0.05"/>
    <junction id="gneJ3" type="dead_end" x="0.00" y="500.00" incLanes="-gneE2_0" intLanes="" shape="-0.05,500.00 3.25,500.00 0.05,500.00"/>
    <junction id="gneJ4" type="dead_end" x="0.00" y="-500.00" incLanes="gneE3_0" intLanes="" shape="0.05,-500.00 -3.25,-500.00 -0.05,-500.00"/>

    <connection from="-gneE1" to="-gneE0" fromLane="0" toLane="0" via=":gneJ1_1_0" tl="gneJ1" linkIndex="1" dir="s" state="o"/>
    <connection from="-gneE3" to="-gneE2" fromLane="0" toLane="0" via=":gneJ1_2_0" tl="gneJ1" linkIndex="2" dir="s" state="o"/>
    <connection from="gneE0" to="gneE1" fromLane="0" toLane="0" via=":gneJ1_3_0" tl="gneJ1" linkIndex="3" dir="s" state="o"/>
    <connection from="gneE2" to="gneE3" fromLane="0" toLane="0" via=":gneJ1_0_0" tl="gneJ1" linkIndex="0" dir="s" state="o"/>

    <connection from=":gneJ1_0" to="gneE3" fromLane="0" toLane="0" dir="s" state="M"/>
    <connection from=":gneJ1_1" to="-gneE0" fromLane="0" toLane="0" dir="s" state="M"/>
    <connection from=":gneJ1_2" to="-gneE2" fromLane="0" toLane="0" dir="s" state="M"/>
    <connection from=":gneJ1_3" to="gneE1" fromLane="0" toLane="0" dir="s" state="M"/>

</net>
