<routes>
<vehicle id="0" depart="0" departLane="free" departPos="free">
<route edges=" -15913#2 -15897#2 --15907#2 -15895#3 -15895#4 -15895#5 -15895#6 --15911#2 --15911#1 --15891#5 "/>
</vehicle>
<vehicle id="1" depart="0" departLane="free" departPos="free">
<route edges=" --15893#1 -15885#1 -15885#2 -15885#3 -15899#1 -15899#2 -15899#3 -15899#4 -15899#5 -15899#6 -15899#7 -15899#8 "/>
</vehicle>
<vehicle id="2" depart="0" departLane="free" departPos="free">
<route edges=" --15933 -15889#0 -15889#1 -15889#2 -15889#3 -15889#4 -15889#5 -15889#6 --15905#8 --15905#7 --15905#6 --15905#5 --15905#4 --15905#3 --15905#2 --15905#1 -15885#6 --15925 "/>
</vehicle>
<vehicle id="3" depart="1" departLane="free" departPos="free">
<route edges=" -15923 -15885#0 -15885#1 -15885#2 -15885#3 -15885#4 -15885#5 -15885#6 -15887#0 -15887#1 -15887#2 -15887#3 -15887#4 -15887#5 -15887#6 -15887#7 "/>
</vehicle>
<vehicle id="4" depart="2" departLane="free" departPos="free">
<route edges=" -15919#0 -15919#1 -15919#2 -15919#3 --15897#7 --15897#6 --15897#5 --15897#4 --15897#3 --15897#2 "/>
</vehicle>
<vehicle id="5" depart="3" departLane="free" departPos="free">
<route edges=" -15913#0 -15893#2 -15893#3 -15893#4 -15893#5 -15893#6 -15911#2 -15911#3 -15911#4 -15911#5 -15911#6 -15911#7 "/>
</vehicle>
<vehicle id="6" depart="3" departLane="free" departPos="free">
<route edges=" --15893#9 -15889#1 -15889#2 -15889#3 -15889#4 -15889#5 --15901#8 --15901#7 --15901#6 --15901#5 --15901#4 --15901#3 --15901#2 --15901#1 --15901#0 "/>
</vehicle>
<vehicle id="7" depart="3" departLane="free" departPos="free">
<route edges=" --15893#7 --15893#6 --15893#5 -15909#1 -15909#2 -15909#3 -15909#4 -15909#5 --15905#4 "/>
</vehicle>
<vehicle id="8" depart="4" departLane="free" departPos="free">
<route edges=" -15923 -15885#0 -15885#1 -15885#2 -15885#3 -15885#4 -15885#5 -15885#6 -15887#0 -15887#1 -15887#2 -15887#3 -15887#4 -15887#5 -15887#6 -15887#7 "/>
</vehicle>
<vehicle id="9" depart="4" departLane="free" departPos="free">
<route edges=" --15907#7 -15887#2 -15915#0 -15915#1 -15915#2 -15915#3 -15915#4 -15915#5 -15915#6 -15891#3 "/>
</vehicle>
<vehicle id="10" depart="4" departLane="free" departPos="free">
<route edges=" --15909#6 --15909#5 --15909#4 --15909#3 --15909#2 --15909#1 -15893#5 -15893#6 -15893#7 -15893#8 "/>
</vehicle>
<vehicle id="11" depart="5" departLane="free" departPos="free">
<route edges=" -15899#0 --15885#3 --15885#2 -15895#1 -15895#2 -15895#3 -15895#4 -15895#5 -15895#6 -15895#7 -15895#8 --15889#1 --15889#0 -15933 "/>
</vehicle>
<vehicle id="12" depart="5" departLane="free" departPos="free">
<route edges=" --15887#3 --15887#2 --15907#6 --15907#5 --15907#4 --15907#3 --15907#2 --15907#1 --15907#0 "/>
</vehicle>
<vehicle id="13" depart="5" departLane="free" departPos="free">
<route edges=" --15893#9 -15889#1 -15889#2 -15889#3 -15889#4 -15889#5 --15901#8 --15901#7 --15901#6 --15901#5 --15901#4 --15901#3 --15901#2 --15901#1 --15901#0 "/>
</vehicle>
<vehicle id="14" depart="6" departLane="free" departPos="free">
<route edges=" --15887#3 --15887#2 --15907#6 --15907#5 --15907#4 --15907#3 --15907#2 --15907#1 --15907#0 "/>
</vehicle>
<vehicle id="15" depart="6" departLane="free" departPos="free">
<route edges=" -15913#0 -15893#2 -15893#3 -15893#4 -15893#5 -15893#6 -15911#2 -15911#3 -15911#4 -15911#5 -15911#6 -15911#7 "/>
</vehicle>
<vehicle id="16" depart="6" departLane="free" departPos="free">
<route edges=" --15897#8 --15897#7 --15897#6 --15897#5 --15897#4 --15897#3 --15897#2 -15913#3 -15913#4 -15913#5 "/>
</vehicle>
<vehicle id="17" depart="7" departLane="free" departPos="free">
<route edges=" -15899#0 --15885#3 --15885#2 -15895#1 -15895#2 -15895#3 -15895#4 -15895#5 -15895#6 -15895#7 -15895#8 --15889#1 --15889#0 -15933 "/>
</vehicle>
<vehicle id="18" depart="7" departLane="free" departPos="free">
<route edges=" --15893#9 -15889#1 -15889#2 -15889#3 -15889#4 -15889#5 --15901#8 --15901#7 --15901#6 --15901#5 --15901#4 --15901#3 --15901#2 --15901#1 --15901#0 "/>
</vehicle>
<vehicle id="19" depart="8" departLane="free" departPos="free">
<route edges=" -15913#0 -15893#2 -15893#3 -15893#4 -15893#5 -15893#6 -15911#2 -15911#3 -15911#4 -15911#5 -15911#6 -15911#7 "/>
</vehicle>
<vehicle id="20" depart="8" departLane="free" departPos="free">
<route edges=" --15887#1 --15887#0 --15885#6 --15885#5 --15885#4 --15885#3 --15897#0 "/>
</vehicle>
<vehicle id="21" depart="8" departLane="free" departPos="free">
<route edges=" --15909#6 --15909#5 --15909#4 --15909#3 --15909#2 --15909#1 -15893#5 -15893#6 -15893#7 -15893#8 "/>
</vehicle>
<vehicle id="22" depart="9" departLane="free" departPos="free">
<route edges=" --15887#3 --15887#2 --15907#6 --15907#5 --15907#4 --15907#3 --15907#2 --15907#1 --15907#0 "/>
</vehicle>
<vehicle id="23" depart="9" departLane="free" departPos="free">
<route edges=" -15913#0 -15893#2 -15893#3 -15893#4 -15893#5 -15893#6 -15911#2 -15911#3 -15911#4 -15911#5 -15911#6 -15911#7 "/>
</vehicle>
<vehicle id="24" depart="9" departLane="free" departPos="free">
<route edges=" --15905#9 --15889#6 --15901#8 --15901#7 --15901#6 -15917#2 -15917#3 -15897#6 "/>
</vehicle>
<vehicle id="25" depart="9" departLane="free" departPos="free">
<route edges=" --15893#7 --15893#6 --15893#5 -15909#1 -15909#2 -15909#3 -15909#4 -15909#5 --15905#4 "/>
</vehicle>
<vehicle id="26" depart="9" departLane="free" departPos="free">
<route edges=" --15909#6 --15909#5 --15909#4 --15909#3 --15909#2 --15909#1 -15893#5 -15893#6 -15893#7 -15893#8 "/>
</vehicle>
<vehicle id="27" depart="9" departLane="free" departPos="free">
<route edges=" --15899#5 -15909#4 --15901#4 --15901#3 --15901#2 --15901#1 "/>
</vehicle>
<vehicle id="28" depart="10" departLane="free" departPos="free">
<route edges=" -15899#0 --15885#3 --15885#2 -15895#1 -15895#2 -15895#3 -15895#4 -15895#5 -15895#6 -15895#7 -15895#8 --15889#1 --15889#0 -15933 "/>
</vehicle>
<vehicle id="29" depart="10" departLane="free" departPos="free">
<route edges=" --15905#9 --15889#6 --15901#8 --15901#7 --15901#6 -15917#2 -15917#3 -15897#6 "/>
</vehicle>
<vehicle id="30" depart="10" departLane="free" departPos="free">
<route edges=" --15903 --15889#4 --15899#8 --15899#7 --15899#6 --15899#5 --15899#4 --15899#3 --15899#2 --15899#1 "/>
</vehicle>
<vehicle id="31" depart="11" departLane="free" departPos="free">
<route edges=" --15893#1 -15885#1 -15885#2 -15885#3 -15899#1 -15899#2 -15899#3 -15899#4 -15899#5 -15899#6 -15899#7 -15899#8 "/>
</vehicle>
<vehicle id="32" depart="11" departLane="free" departPos="free">
<route edges=" -15913#0 -15893#2 -15893#3 -15893#4 -15893#5 -15893#6 -15911#2 -15911#3 -15911#4 -15911#5 -15911#6 -15911#7 "/>
</vehicle>
<vehicle id="33" depart="11" departLane="free" departPos="free">
<route edges=" --15903 --15889#4 --15899#8 --15899#7 --15899#6 --15899#5 --15899#4 --15899#3 --15899#2 --15899#1 "/>
</vehicle>
<vehicle id="34" depart="12" departLane="free" departPos="free">
<route edges=" --15887#3 --15887#2 --15907#6 --15907#5 --15907#4 --15907#3 --15907#2 --15907#1 --15907#0 "/>
</vehicle>
<vehicle id="35" depart="12" departLane="free" departPos="free">
<route edges=" --15933 -15889#0 -15889#1 -15889#2 -15889#3 -15889#4 -15889#5 -15889#6 --15905#8 --15905#7 --15905#6 --15905#5 --15905#4 --15905#3 --15905#2 --15905#1 -15885#6 --15925 "/>
</vehicle>
<vehicle id="36" depart="12" departLane="free" departPos="free">
<route edges=" --15897#8 --15897#7 --15897#6 --15897#5 --15897#4 --15897#3 --15897#2 -15913#3 -15913#4 -15913#5 "/>
</vehicle>
<vehicle id="37" depart="13" departLane="free" departPos="free">
<route edges=" --15893#7 --15893#6 --15893#5 -15909#1 -15909#2 -15909#3 -15909#4 -15909#5 --15905#4 "/>
</vehicle>
<vehicle id="38" depart="13" departLane="free" departPos="free">
<route edges=" --15909#6 --15909#5 --15909#4 --15909#3 --15909#2 --15909#1 -15893#5 -15893#6 -15893#7 -15893#8 "/>
</vehicle>
<vehicle id="39" depart="13" departLane="free" departPos="free">
<route edges=" --15903 --15889#4 --15899#8 --15899#7 --15899#6 --15899#5 --15899#4 --15899#3 --15899#2 --15899#1 "/>
</vehicle>
<vehicle id="40" depart="14" departLane="free" departPos="free">
<route edges=" -15913#2 -15897#2 --15907#2 -15895#3 -15895#4 -15895#5 -15895#6 --15911#2 --15911#1 --15891#5 "/>
</vehicle>
<vehicle id="41" depart="14" departLane="free" departPos="free">
<route edges=" --15895#9 --15895#8 -15919#5 -15919#6 --15891#6 --15891#5 --15891#4 --15891#3 --15891#2 --15891#1 --15891#0 "/>
</vehicle>
<vehicle id="42" depart="14" departLane="free" departPos="free">
<route edges=" --15889#6 --15889#5 --15889#4 --15889#3 --15889#2 --15895#8 --15895#7 --15895#6 --15895#5 --15895#4 --15895#3 --15895#2 "/>
</vehicle>
<vehicle id="43" depart="15" departLane="free" departPos="free">
<route edges=" -15913#2 -15897#2 --15907#2 -15895#3 -15895#4 -15895#5 -15895#6 --15911#2 --15911#1 --15891#5 "/>
</vehicle>
<vehicle id="44" depart="16" departLane="free" departPos="free">
<route edges=" --15899#5 -15909#4 --15901#4 --15901#3 --15901#2 --15901#1 "/>
</vehicle>
<vehicle id="45" depart="17" departLane="free" departPos="free">
<route edges=" -15923 -15885#0 -15885#1 -15885#2 -15885#3 -15885#4 -15885#5 -15885#6 -15887#0 -15887#1 -15887#2 -15887#3 -15887#4 -15887#5 -15887#6 -15887#7 "/>
</vehicle>
<vehicle id="46" depart="17" departLane="free" departPos="free">
<route edges=" --15893#1 -15885#1 -15885#2 -15885#3 -15899#1 -15899#2 -15899#3 -15899#4 -15899#5 -15899#6 -15899#7 -15899#8 "/>
</vehicle>
<vehicle id="47" depart="17" departLane="free" departPos="free">
<route edges=" --15889#6 --15889#5 --15889#4 --15889#3 --15889#2 --15895#8 --15895#7 --15895#6 --15895#5 --15895#4 --15895#3 --15895#2 "/>
</vehicle>
<vehicle id="48" depart="18" departLane="free" departPos="free">
<route edges=" -15899#0 --15885#3 --15885#2 -15895#1 -15895#2 -15895#3 -15895#4 -15895#5 -15895#6 -15895#7 -15895#8 --15889#1 --15889#0 -15933 "/>
</vehicle>
<vehicle id="49" depart="18" departLane="free" departPos="free">
<route edges=" -15923 -15885#0 -15885#1 -15885#2 -15885#3 -15885#4 -15885#5 -15885#6 -15887#0 -15887#1 -15887#2 -15887#3 -15887#4 -15887#5 -15887#6 -15887#7 "/>
</vehicle>
<vehicle id="50" depart="18" departLane="free" departPos="free">
<route edges=" --15893#1 -15885#1 -15885#2 -15885#3 -15899#1 -15899#2 -15899#3 -15899#4 -15899#5 -15899#6 -15899#7 -15899#8 "/>
</vehicle>
<vehicle id="51" depart="19" departLane="free" departPos="free">
<route edges=" --15933 -15889#0 -15889#1 -15889#2 -15889#3 -15889#4 -15889#5 -15889#6 --15905#8 --15905#7 --15905#6 --15905#5 --15905#4 --15905#3 --15905#2 --15905#1 -15885#6 --15925 "/>
</vehicle>
<vehicle id="52" depart="19" departLane="free" departPos="free">
<route edges=" --15903 --15889#4 --15899#8 --15899#7 --15899#6 --15899#5 --15899#4 --15899#3 --15899#2 --15899#1 "/>
</vehicle>
<vehicle id="53" depart="20" departLane="free" departPos="free">
<route edges=" --15905#9 --15889#6 --15901#8 --15901#7 --15901#6 -15917#2 -15917#3 -15897#6 "/>
</vehicle>
<vehicle id="54" depart="20" departLane="free" departPos="free">
<route edges=" --15933 -15889#0 -15889#1 -15889#2 -15889#3 -15889#4 -15889#5 -15889#6 --15905#8 --15905#7 --15905#6 --15905#5 --15905#4 --15905#3 --15905#2 --15905#1 -15885#6 --15925 "/>
</vehicle>
<vehicle id="55" depart="21" departLane="free" departPos="free">
<route edges=" -15913#0 -15893#2 -15893#3 -15893#4 -15893#5 -15893#6 -15911#2 -15911#3 -15911#4 -15911#5 -15911#6 -15911#7 "/>
</vehicle>
<vehicle id="56" depart="22" departLane="free" departPos="free">
<route edges=" --15933 -15889#0 -15889#1 -15889#2 -15889#3 -15889#4 -15889#5 -15889#6 --15905#8 --15905#7 --15905#6 --15905#5 --15905#4 --15905#3 --15905#2 --15905#1 -15885#6 --15925 "/>
</vehicle>
<vehicle id="57" depart="22" departLane="free" departPos="free">
<route edges=" --15899#5 -15909#4 --15901#4 --15901#3 --15901#2 --15901#1 "/>
</vehicle>
<vehicle id="58" depart="23" departLane="free" departPos="free">
<route edges=" --15893#9 -15889#1 -15889#2 -15889#3 -15889#4 -15889#5 --15901#8 --15901#7 --15901#6 --15901#5 --15901#4 --15901#3 --15901#2 --15901#1 --15901#0 "/>
</vehicle>
<vehicle id="59" depart="23" departLane="free" departPos="free">
<route edges=" --15907#7 -15887#2 -15915#0 -15915#1 -15915#2 -15915#3 -15915#4 -15915#5 -15915#6 -15891#3 "/>
</vehicle>
<vehicle id="60" depart="24" departLane="free" departPos="free">
<route edges=" -15899#0 --15885#3 --15885#2 -15895#1 -15895#2 -15895#3 -15895#4 -15895#5 -15895#6 -15895#7 -15895#8 --15889#1 --15889#0 -15933 "/>
</vehicle>
<vehicle id="61" depart="24" departLane="free" departPos="free">
<route edges=" -15907#0 -15907#1 -15907#2 -15907#3 -15907#4 -15907#5 -15907#6 "/>
</vehicle>
<vehicle id="62" depart="24" departLane="free" departPos="free">
<route edges=" --15933 -15889#0 -15889#1 -15889#2 -15889#3 -15889#4 -15889#5 -15889#6 --15905#8 --15905#7 --15905#6 --15905#5 --15905#4 --15905#3 --15905#2 --15905#1 -15885#6 --15925 "/>
</vehicle>
<vehicle id="63" depart="25" departLane="free" departPos="free">
<route edges=" -15913#2 -15897#2 --15907#2 -15895#3 -15895#4 -15895#5 -15895#6 --15911#2 --15911#1 --15891#5 "/>
</vehicle>
<vehicle id="64" depart="25" departLane="free" departPos="free">
<route edges=" --15893#1 -15885#1 -15885#2 -15885#3 -15899#1 -15899#2 -15899#3 -15899#4 -15899#5 -15899#6 -15899#7 -15899#8 "/>
</vehicle>
<vehicle id="65" depart="25" departLane="free" departPos="free">
<route edges=" -15913#0 -15893#2 -15893#3 -15893#4 -15893#5 -15893#6 -15911#2 -15911#3 -15911#4 -15911#5 -15911#6 -15911#7 "/>
</vehicle>
<vehicle id="66" depart="25" departLane="free" departPos="free">
<route edges=" --15907#7 -15887#2 -15915#0 -15915#1 -15915#2 -15915#3 -15915#4 -15915#5 -15915#6 -15891#3 "/>
</vehicle>
<vehicle id="67" depart="25" departLane="free" departPos="free">
<route edges=" --15903 --15889#4 --15899#8 --15899#7 --15899#6 --15899#5 --15899#4 --15899#3 --15899#2 --15899#1 "/>
</vehicle>
<vehicle id="68" depart="26" departLane="free" departPos="free">
<route edges=" -15913#2 -15897#2 --15907#2 -15895#3 -15895#4 -15895#5 -15895#6 --15911#2 --15911#1 --15891#5 "/>
</vehicle>
<vehicle id="69" depart="26" departLane="free" departPos="free">
<route edges=" --15893#7 --15893#6 --15893#5 -15909#1 -15909#2 -15909#3 -15909#4 -15909#5 --15905#4 "/>
</vehicle>
<vehicle id="70" depart="26" departLane="free" departPos="free">
<route edges=" --15899#5 -15909#4 --15901#4 --15901#3 --15901#2 --15901#1 "/>
</vehicle>
<vehicle id="71" depart="27" departLane="free" departPos="free">
<route edges=" --15893#1 -15885#1 -15885#2 -15885#3 -15899#1 -15899#2 -15899#3 -15899#4 -15899#5 -15899#6 -15899#7 -15899#8 "/>
</vehicle>
<vehicle id="72" depart="27" departLane="free" departPos="free">
<route edges=" -15907#0 -15907#1 -15907#2 -15907#3 -15907#4 -15907#5 -15907#6 "/>
</vehicle>
<vehicle id="73" depart="28" departLane="free" departPos="free">
<route edges=" -15913#0 -15893#2 -15893#3 -15893#4 -15893#5 -15893#6 -15911#2 -15911#3 -15911#4 -15911#5 -15911#6 -15911#7 "/>
</vehicle>
<vehicle id="74" depart="28" departLane="free" departPos="free">
<route edges=" --15907#7 -15887#2 -15915#0 -15915#1 -15915#2 -15915#3 -15915#4 -15915#5 -15915#6 -15891#3 "/>
</vehicle>
<vehicle id="75" depart="28" departLane="free" departPos="free">
<route edges=" --15899#5 -15909#4 --15901#4 --15901#3 --15901#2 --15901#1 "/>
</vehicle>
<vehicle id="76" depart="29" departLane="free" departPos="free">
<route edges=" --15893#1 -15885#1 -15885#2 -15885#3 -15899#1 -15899#2 -15899#3 -15899#4 -15899#5 -15899#6 -15899#7 -15899#8 "/>
</vehicle>
<vehicle id="77" depart="29" departLane="free" departPos="free">
<route edges=" --15887#3 --15887#2 --15907#6 --15907#5 --15907#4 --15907#3 --15907#2 --15907#1 --15907#0 "/>
</vehicle>
<vehicle id="78" depart="29" departLane="free" departPos="free">
<route edges=" --15893#7 --15893#6 --15893#5 -15909#1 -15909#2 -15909#3 -15909#4 -15909#5 --15905#4 "/>
</vehicle>
<vehicle id="79" depart="29" departLane="free" departPos="free">
<route edges=" --15909#6 --15909#5 --15909#4 --15909#3 --15909#2 --15909#1 -15893#5 -15893#6 -15893#7 -15893#8 "/>
</vehicle>
<vehicle id="80" depart="30" departLane="free" departPos="free">
<route edges=" -15923 -15885#0 -15885#1 -15885#2 -15885#3 -15885#4 -15885#5 -15885#6 -15887#0 -15887#1 -15887#2 -15887#3 -15887#4 -15887#5 -15887#6 -15887#7 "/>
</vehicle>
<vehicle id="81" depart="31" departLane="free" departPos="free">
<route edges=" -15913#0 -15893#2 -15893#3 -15893#4 -15893#5 -15893#6 -15911#2 -15911#3 -15911#4 -15911#5 -15911#6 -15911#7 "/>
</vehicle>
<vehicle id="82" depart="31" departLane="free" departPos="free">
<route edges=" --15893#9 -15889#1 -15889#2 -15889#3 -15889#4 -15889#5 --15901#8 --15901#7 --15901#6 --15901#5 --15901#4 --15901#3 --15901#2 --15901#1 --15901#0 "/>
</vehicle>
<vehicle id="83" depart="31" departLane="free" departPos="free">
<route edges=" --15907#7 -15887#2 -15915#0 -15915#1 -15915#2 -15915#3 -15915#4 -15915#5 -15915#6 -15891#3 "/>
</vehicle>
<vehicle id="84" depart="31" departLane="free" departPos="free">
<route edges=" --15897#8 --15897#7 --15897#6 --15897#5 --15897#4 --15897#3 --15897#2 -15913#3 -15913#4 -15913#5 "/>
</vehicle>
<vehicle id="85" depart="31" departLane="free" departPos="free">
<route edges=" --15899#5 -15909#4 --15901#4 --15901#3 --15901#2 --15901#1 "/>
</vehicle>
<vehicle id="86" depart="32" departLane="free" departPos="free">
<route edges=" --15893#7 --15893#6 --15893#5 -15909#1 -15909#2 -15909#3 -15909#4 -15909#5 --15905#4 "/>
</vehicle>
<vehicle id="87" depart="33" departLane="free" departPos="free">
<route edges=" -15899#0 --15885#3 --15885#2 -15895#1 -15895#2 -15895#3 -15895#4 -15895#5 -15895#6 -15895#7 -15895#8 --15889#1 --15889#0 -15933 "/>
</vehicle>
<vehicle id="88" depart="33" departLane="free" departPos="free">
<route edges=" -15923 -15885#0 -15885#1 -15885#2 -15885#3 -15885#4 -15885#5 -15885#6 -15887#0 -15887#1 -15887#2 -15887#3 -15887#4 -15887#5 -15887#6 -15887#7 "/>
</vehicle>
<vehicle id="89" depart="33" departLane="free" departPos="free">
<route edges=" -15913#0 -15893#2 -15893#3 -15893#4 -15893#5 -15893#6 -15911#2 -15911#3 -15911#4 -15911#5 -15911#6 -15911#7 "/>
</vehicle>
<vehicle id="90" depart="33" departLane="free" departPos="free">
<route edges=" --15897#8 --15897#7 --15897#6 --15897#5 --15897#4 --15897#3 --15897#2 -15913#3 -15913#4 -15913#5 "/>
</vehicle>
<vehicle id="91" depart="34" departLane="free" departPos="free">
<route edges=" -15913#2 -15897#2 --15907#2 -15895#3 -15895#4 -15895#5 -15895#6 --15911#2 --15911#1 --15891#5 "/>
</vehicle>
<vehicle id="92" depart="34" departLane="free" departPos="free">
<route edges=" --15893#9 -15889#1 -15889#2 -15889#3 -15889#4 -15889#5 --15901#8 --15901#7 --15901#6 --15901#5 --15901#4 --15901#3 --15901#2 --15901#1 --15901#0 "/>
</vehicle>
<vehicle id="93" depart="35" departLane="free" departPos="free">
<route edges=" -15899#0 --15885#3 --15885#2 -15895#1 -15895#2 -15895#3 -15895#4 -15895#5 -15895#6 -15895#7 -15895#8 --15889#1 --15889#0 -15933 "/>
</vehicle>
<vehicle id="94" depart="35" departLane="free" departPos="free">
<route edges=" -15913#2 -15897#2 --15907#2 -15895#3 -15895#4 -15895#5 -15895#6 --15911#2 --15911#1 --15891#5 "/>
</vehicle>
<vehicle id="95" depart="35" departLane="free" departPos="free">
<route edges=" -15919#0 -15919#1 -15919#2 -15919#3 --15897#7 --15897#6 --15897#5 --15897#4 --15897#3 --15897#2 "/>
</vehicle>
<vehicle id="96" depart="36" departLane="free" departPos="free">
<route edges=" --15889#6 --15889#5 --15889#4 --15889#3 --15889#2 --15895#8 --15895#7 --15895#6 --15895#5 --15895#4 --15895#3 --15895#2 "/>
</vehicle>
<vehicle id="97" depart="36" departLane="free" departPos="free">
<route edges=" --15905#9 --15889#6 --15901#8 --15901#7 --15901#6 -15917#2 -15917#3 -15897#6 "/>
</vehicle>
<vehicle id="98" depart="37" departLane="free" departPos="free">
<route edges=" -15913#2 -15897#2 --15907#2 -15895#3 -15895#4 -15895#5 -15895#6 --15911#2 --15911#1 --15891#5 "/>
</vehicle>
<vehicle id="99" depart="37" departLane="free" departPos="free">
<route edges=" -15923 -15885#0 -15885#1 -15885#2 -15885#3 -15885#4 -15885#5 -15885#6 -15887#0 -15887#1 -15887#2 -15887#3 -15887#4 -15887#5 -15887#6 -15887#7 "/>
</vehicle>
<vehicle id="100" depart="37" departLane="free" departPos="free">
<route edges=" --15893#1 -15885#1 -15885#2 -15885#3 -15899#1 -15899#2 -15899#3 -15899#4 -15899#5 -15899#6 -15899#7 -15899#8 "/>
</vehicle>
<vehicle id="101" depart="37" departLane="free" departPos="free">
<route edges=" --15889#6 --15889#5 --15889#4 --15889#3 --15889#2 --15895#8 --15895#7 --15895#6 --15895#5 --15895#4 --15895#3 --15895#2 "/>
</vehicle>
<vehicle id="102" depart="38" departLane="free" departPos="free">
<route edges=" -15913#2 -15897#2 --15907#2 -15895#3 -15895#4 -15895#5 -15895#6 --15911#2 --15911#1 --15891#5 "/>
</vehicle>
<vehicle id="103" depart="38" departLane="free" departPos="free">
<route edges=" -15919#0 -15919#1 -15919#2 -15919#3 --15897#7 --15897#6 --15897#5 --15897#4 --15897#3 --15897#2 "/>
</vehicle>
<vehicle id="104" depart="38" departLane="free" departPos="free">
<route edges=" --15899#5 -15909#4 --15901#4 --15901#3 --15901#2 --15901#1 "/>
</vehicle>
<vehicle id="105" depart="39" departLane="free" departPos="free">
<route edges=" --15893#1 -15885#1 -15885#2 -15885#3 -15899#1 -15899#2 -15899#3 -15899#4 -15899#5 -15899#6 -15899#7 -15899#8 "/>
</vehicle>
<vehicle id="106" depart="39" departLane="free" departPos="free">
<route edges=" --15889#6 --15889#5 --15889#4 --15889#3 --15889#2 --15895#8 --15895#7 --15895#6 --15895#5 --15895#4 --15895#3 --15895#2 "/>
</vehicle>
<vehicle id="107" depart="39" departLane="free" departPos="free">
<route edges=" --15893#9 -15889#1 -15889#2 -15889#3 -15889#4 -15889#5 --15901#8 --15901#7 --15901#6 --15901#5 --15901#4 --15901#3 --15901#2 --15901#1 --15901#0 "/>
</vehicle>
<vehicle id="108" depart="39" departLane="free" departPos="free">
<route edges=" --15893#7 --15893#6 --15893#5 -15909#1 -15909#2 -15909#3 -15909#4 -15909#5 --15905#4 "/>
</vehicle>
<vehicle id="109" depart="39" departLane="free" departPos="free">
<route edges=" -15907#0 -15907#1 -15907#2 -15907#3 -15907#4 -15907#5 -15907#6 "/>
</vehicle>
<vehicle id="110" depart="39" departLane="free" departPos="free">
<route edges=" --15933 -15889#0 -15889#1 -15889#2 -15889#3 -15889#4 -15889#5 -15889#6 --15905#8 --15905#7 --15905#6 --15905#5 --15905#4 --15905#3 --15905#2 --15905#1 -15885#6 --15925 "/>
</vehicle>
<vehicle id="111" depart="39" departLane="free" departPos="free">
<route edges=" --15903 --15889#4 --15899#8 --15899#7 --15899#6 --15899#5 --15899#4 --15899#3 --15899#2 --15899#1 "/>
</vehicle>
<vehicle id="112" depart="39" departLane="free" departPos="free">
<route edges=" --15899#5 -15909#4 --15901#4 --15901#3 --15901#2 --15901#1 "/>
</vehicle>
<vehicle id="113" depart="40" departLane="free" departPos="free">
<route edges=" -15913#2 -15897#2 --15907#2 -15895#3 -15895#4 -15895#5 -15895#6 --15911#2 --15911#1 --15891#5 "/>
</vehicle>
<vehicle id="114" depart="40" departLane="free" departPos="free">
<route edges=" --15887#3 --15887#2 --15907#6 --15907#5 --15907#4 --15907#3 --15907#2 --15907#1 --15907#0 "/>
</vehicle>
<vehicle id="115" depart="40" departLane="free" departPos="free">
<route edges=" --15895#9 --15895#8 -15919#5 -15919#6 --15891#6 --15891#5 --15891#4 --15891#3 --15891#2 --15891#1 --15891#0 "/>
</vehicle>
<vehicle id="116" depart="41" departLane="free" departPos="free">
<route edges=" --15893#9 -15889#1 -15889#2 -15889#3 -15889#4 -15889#5 --15901#8 --15901#7 --15901#6 --15901#5 --15901#4 --15901#3 --15901#2 --15901#1 --15901#0 "/>
</vehicle>
<vehicle id="117" depart="41" departLane="free" departPos="free">
<route edges=" --15893#7 --15893#6 --15893#5 -15909#1 -15909#2 -15909#3 -15909#4 -15909#5 --15905#4 "/>
</vehicle>
<vehicle id="118" depart="41" departLane="free" departPos="free">
<route edges=" --15933 -15889#0 -15889#1 -15889#2 -15889#3 -15889#4 -15889#5 -15889#6 --15905#8 --15905#7 --15905#6 --15905#5 --15905#4 --15905#3 --15905#2 --15905#1 -15885#6 --15925 "/>
</vehicle>
<vehicle id="119" depart="42" departLane="free" departPos="free">
<route edges=" -15899#0 --15885#3 --15885#2 -15895#1 -15895#2 -15895#3 -15895#4 -15895#5 -15895#6 -15895#7 -15895#8 --15889#1 --15889#0 -15933 "/>
</vehicle>
<vehicle id="120" depart="42" departLane="free" departPos="free">
<route edges=" -15913#0 -15893#2 -15893#3 -15893#4 -15893#5 -15893#6 -15911#2 -15911#3 -15911#4 -15911#5 -15911#6 -15911#7 "/>
</vehicle>
<vehicle id="121" depart="42" departLane="free" departPos="free">
<route edges=" --15887#1 --15887#0 --15885#6 --15885#5 --15885#4 --15885#3 --15897#0 "/>
</vehicle>
<vehicle id="122" depart="42" departLane="free" departPos="free">
<route edges=" --15907#7 -15887#2 -15915#0 -15915#1 -15915#2 -15915#3 -15915#4 -15915#5 -15915#6 -15891#3 "/>
</vehicle>
<vehicle id="123" depart="42" departLane="free" departPos="free">
<route edges=" --15899#5 -15909#4 --15901#4 --15901#3 --15901#2 --15901#1 "/>
</vehicle>
<vehicle id="124" depart="43" departLane="free" departPos="free">
<route edges=" -15899#0 --15885#3 --15885#2 -15895#1 -15895#2 -15895#3 -15895#4 -15895#5 -15895#6 -15895#7 -15895#8 --15889#1 --15889#0 -15933 "/>
</vehicle>
<vehicle id="125" depart="43" departLane="free" departPos="free">
<route edges=" --15895#9 --15895#8 -15919#5 -15919#6 --15891#6 --15891#5 --15891#4 --15891#3 --15891#2 --15891#1 --15891#0 "/>
</vehicle>
<vehicle id="126" depart="43" departLane="free" departPos="free">
<route edges=" -15907#0 -15907#1 -15907#2 -15907#3 -15907#4 -15907#5 -15907#6 "/>
</vehicle>
<vehicle id="127" depart="43" departLane="free" departPos="free">
<route edges=" --15933 -15889#0 -15889#1 -15889#2 -15889#3 -15889#4 -15889#5 -15889#6 --15905#8 --15905#7 --15905#6 --15905#5 --15905#4 --15905#3 --15905#2 --15905#1 -15885#6 --15925 "/>
</vehicle>
<vehicle id="128" depart="44" departLane="free" departPos="free">
<route edges=" -15913#2 -15897#2 --15907#2 -15895#3 -15895#4 -15895#5 -15895#6 --15911#2 --15911#1 --15891#5 "/>
</vehicle>
<vehicle id="129" depart="44" departLane="free" departPos="free">
<route edges=" --15895#9 --15895#8 -15919#5 -15919#6 --15891#6 --15891#5 --15891#4 --15891#3 --15891#2 --15891#1 --15891#0 "/>
</vehicle>
<vehicle id="130" depart="45" departLane="free" departPos="free">
<route edges=" --15903 --15889#4 --15899#8 --15899#7 --15899#6 --15899#5 --15899#4 --15899#3 --15899#2 --15899#1 "/>
</vehicle>
<vehicle id="131" depart="45" departLane="free" departPos="free">
<route edges=" --15897#8 --15897#7 --15897#6 --15897#5 --15897#4 --15897#3 --15897#2 -15913#3 -15913#4 -15913#5 "/>
</vehicle>
<vehicle id="132" depart="46" departLane="free" departPos="free">
<route edges=" --15887#3 --15887#2 --15907#6 --15907#5 --15907#4 --15907#3 --15907#2 --15907#1 --15907#0 "/>
</vehicle>
<vehicle id="133" depart="46" departLane="free" departPos="free">
<route edges=" -15919#0 -15919#1 -15919#2 -15919#3 --15897#7 --15897#6 --15897#5 --15897#4 --15897#3 --15897#2 "/>
</vehicle>
<vehicle id="134" depart="46" departLane="free" departPos="free">
<route edges=" --15893#7 --15893#6 --15893#5 -15909#1 -15909#2 -15909#3 -15909#4 -15909#5 --15905#4 "/>
</vehicle>
<vehicle id="135" depart="46" departLane="free" departPos="free">
<route edges=" --15933 -15889#0 -15889#1 -15889#2 -15889#3 -15889#4 -15889#5 -15889#6 --15905#8 --15905#7 --15905#6 --15905#5 --15905#4 --15905#3 --15905#2 --15905#1 -15885#6 --15925 "/>
</vehicle>
<vehicle id="136" depart="47" departLane="free" departPos="free">
<route edges=" -15899#0 --15885#3 --15885#2 -15895#1 -15895#2 -15895#3 -15895#4 -15895#5 -15895#6 -15895#7 -15895#8 --15889#1 --15889#0 -15933 "/>
</vehicle>
<vehicle id="137" depart="47" departLane="free" departPos="free">
<route edges=" -15907#0 -15907#1 -15907#2 -15907#3 -15907#4 -15907#5 -15907#6 "/>
</vehicle>
<vehicle id="138" depart="48" departLane="free" departPos="free">
<route edges=" -15907#0 -15907#1 -15907#2 -15907#3 -15907#4 -15907#5 -15907#6 "/>
</vehicle>
<vehicle id="139" depart="49" departLane="free" departPos="free">
<route edges=" -15923 -15885#0 -15885#1 -15885#2 -15885#3 -15885#4 -15885#5 -15885#6 -15887#0 -15887#1 -15887#2 -15887#3 -15887#4 -15887#5 -15887#6 -15887#7 "/>
</vehicle>
<vehicle id="140" depart="49" departLane="free" departPos="free">
<route edges=" --15887#3 --15887#2 --15907#6 --15907#5 --15907#4 --15907#3 --15907#2 --15907#1 --15907#0 "/>
</vehicle>
<vehicle id="141" depart="49" departLane="free" departPos="free">
<route edges=" -15913#0 -15893#2 -15893#3 -15893#4 -15893#5 -15893#6 -15911#2 -15911#3 -15911#4 -15911#5 -15911#6 -15911#7 "/>
</vehicle>
<vehicle id="142" depart="50" departLane="free" departPos="free">
<route edges=" -15923 -15885#0 -15885#1 -15885#2 -15885#3 -15885#4 -15885#5 -15885#6 -15887#0 -15887#1 -15887#2 -15887#3 -15887#4 -15887#5 -15887#6 -15887#7 "/>
</vehicle>
<vehicle id="143" depart="50" departLane="free" departPos="free">
<route edges=" --15893#9 -15889#1 -15889#2 -15889#3 -15889#4 -15889#5 --15901#8 --15901#7 --15901#6 --15901#5 --15901#4 --15901#3 --15901#2 --15901#1 --15901#0 "/>
</vehicle>
<vehicle id="144" depart="50" departLane="free" departPos="free">
<route edges=" --15893#7 --15893#6 --15893#5 -15909#1 -15909#2 -15909#3 -15909#4 -15909#5 --15905#4 "/>
</vehicle>
<vehicle id="145" depart="51" departLane="free" departPos="free">
<route edges=" -15923 -15885#0 -15885#1 -15885#2 -15885#3 -15885#4 -15885#5 -15885#6 -15887#0 -15887#1 -15887#2 -15887#3 -15887#4 -15887#5 -15887#6 -15887#7 "/>
</vehicle>
<vehicle id="146" depart="51" departLane="free" departPos="free">
<route edges=" -15913#0 -15893#2 -15893#3 -15893#4 -15893#5 -15893#6 -15911#2 -15911#3 -15911#4 -15911#5 -15911#6 -15911#7 "/>
</vehicle>
<vehicle id="147" depart="52" departLane="free" departPos="free">
<route edges=" -15919#0 -15919#1 -15919#2 -15919#3 --15897#7 --15897#6 --15897#5 --15897#4 --15897#3 --15897#2 "/>
</vehicle>
<vehicle id="148" depart="52" departLane="free" departPos="free">