<?xml version="1.0" encoding="UTF-8"?>

<!-- generated on 03/05/2017 09:34:01 by Netedit Version 0.29.0
<?xml version="1.0" encoding="UTF-8"?>

<configuration xmlns:xsi="http://www.w3.org/2001/XMLSchema-instance" xsi:noNamespaceSchemaLocation="http://sumo.dlr.de/xsd/netedit.exeConfiguration.xsd">

    <input>
        <sumo-net-file value="C:\Users\z003e4fv\Desktop\SUMO\Tutorials\CoventryIVMS_SUMO_AH\iVMS_Coventry.net.xml"/>
    </input>

    <output>
        <output-file value="C:\Users\z003e4fv\Desktop\SUMO\Tutorials\CoventryIVMS_SUMO_AH\iVMS_Coventry2.net.xml"/>
        <output.street-names value="true"/>
    </output>

    <processing>
        <no-turnarounds value="true"/>
        <offset.disable-normalization value="true"/>
        <lefthand value="true"/>
        <junctions.corner-detail value="0"/>
    </processing>

</configuration>
-->

<net version="0.27" lefthand="true" xmlns:xsi="http://www.w3.org/2001/XMLSchema-instance" xsi:noNamespaceSchemaLocation="http://sumo.dlr.de/xsd/net_file.xsd">

    <location netOffset="-597271.52,5805070.11" convBoundary="4474.15,1109.23,13515.19,14326.97" origBoundary="-1.568031,52.348459,-1.367423,52.533708" projParameter="+proj=utm +zone=30 +ellps=WGS84 +datum=WGS84 +units=m +no_defs"/>

    <edge id=":-174_0" function="internal">
        <lane id=":-174_0_0" index="0" disallow="tram rail_urban rail rail_electric bicycle pedestrian ship" speed="13.41" length="3.55" shape="4953.94,2410.51 4953.19,2409.86 4952.93,2409.11 4952.68,2408.36 4951.92,2407.72"/>
        <lane id=":-174_0_1" index="1" disallow="tram rail_urban rail rail_electric bicycle pedestrian ship" speed="13.41" length="3.55" shape="4953.94,2410.51 4952.97,2410.32 4952.23,2410.60 4951.49,2410.87 4950.52,2410.70"/>
        <lane id=":-174_0_2" index="2" disallow="tram rail_urban rail rail_electric bicycle pedestrian ship" speed="13.41" length="3.55" shape="4952.50,2413.48 4951.54,2413.30 4950.81,2413.58 4950.07,2413.85 4949.11,2413.69"/>
    </edge>
    <edge id=":-186_0" function="internal">
        <lane id=":-186_0_0" index="0" disallow="tram rail_urban rail rail_electric bicycle pedestrian ship" speed="13.41" length="2.20" shape="5202.35,2483.72 5201.01,2485.06"/>
        <lane id=":-186_0_1" index="1" disallow="tram rail_urban rail rail_electric bicycle pedestrian ship" speed="13.41" length="2.20" shape="5201.78,2486.97 5199.86,2488.16"/>
        <lane id=":-186_0_2" index="2" disallow="tram rail_urban rail rail_electric bicycle pedestrian ship" speed="13.41" length="2.20" shape="5201.20,2490.22 5199.86,2488.16"/>
    </edge>
    <edge id=":-188_0" function="internal">
        <lane id=":-188_0_0" index="0" disallow="tram rail_urban rail rail_electric bicycle pedestrian ship" speed="13.41" length="16.90" shape="5128.16,2458.19 5112.10,2452.80"/>
        <lane id=":-188_0_1" index="1" disallow="tram rail_urban rail rail_electric bicycle pedestrian ship" speed="13.41" length="16.90" shape="5127.02,2461.28 5111.04,2455.93"/>
    </edge>
    <edge id=":-188_2" function="internal">
        <lane id=":-188_2_0" index="0" disallow="tram rail_urban rail rail_electric bicycle pedestrian ship" speed="13.41" length="16.78" shape="5127.02,2461.28 5121.80,2459.94 5117.59,2459.69 5113.96,2459.70 5110.46,2459.14"/>
    </edge>
    <edge id=":-190_0" function="internal">
        <lane id=":-190_0_0" index="0" disallow="tram rail_urban rail rail_electric ship" speed="17.81" length="5.90" shape="5400.84,2374.20 5399.35,2375.19 5398.19,2375.28 5397.35,2374.47 5396.83,2372.76"/>
    </edge>
    <edge id=":-190_1" function="internal">
        <lane id=":-190_1_0" index="0" disallow="tram rail_urban rail rail_electric ship" speed="17.81" length="15.30" shape="5400.84,2374.20 5396.84,2377.38 5393.28,2379.54 5390.15,2380.70 5387.46,2380.85"/>
    </edge>
    <edge id=":-190_2" function="internal">
        <lane id=":-190_2_0" index="0" disallow="tram rail_urban rail rail_electric bicycle pedestrian ship" speed="13.41" length="16.18" shape="5400.84,2374.20 5388.64,2384.84"/>
        <lane id=":-190_2_1" index="1" disallow="tram rail_urban rail rail_electric bicycle pedestrian ship" speed="13.41" length="16.18" shape="5403.01,2376.69 5390.81,2387.33"/>
        <lane id=":-190_2_2" index="2" disallow="tram rail_urban rail rail_electric bicycle pedestrian ship" speed="13.41" length="16.18" shape="5405.17,2379.18 5392.98,2389.81"/>
    </edge>
    <edge id=":-190_5" function="internal">
        <lane id=":-190_5_0" index="0" disallow="tram rail_urban rail rail_electric ship" speed="22.22" length="12.05" shape="5393.57,2373.30 5393.73,2377.01 5392.76,2379.50 5390.67,2380.78 5387.46,2380.85"/>
    </edge>
    <edge id=":-190_6" function="internal">
        <lane id=":-190_6_0" index="0" disallow="tram rail_urban rail rail_electric bicycle pedestrian ship" speed="17.81" length="13.12" shape="5393.57,2373.30 5393.66,2376.39 5392.87,2379.35 5391.19,2382.16 5388.64,2384.84"/>
    </edge>
    <edge id=":-202_0" function="internal">
        <lane id=":-202_0_0" index="0" disallow="tram rail_urban rail rail_electric bicycle pedestrian ship" speed="20.59" length="9.19" shape="5405.88,2522.46 5403.97,2520.89 5402.98,2519.44 5402.02,2517.96 5400.17,2516.30"/>
        <lane id=":-202_0_1" index="1" disallow="tram rail_urban rail rail_electric bicycle pedestrian ship" speed="20.59" length="9.19" shape="5405.88,2522.46 5403.30,2521.07 5401.40,2520.37 5399.52,2519.62 5397.02,2518.12"/>
    </edge>
    <edge id=":-202_2" function="internal">
        <lane id=":-202_2_0" index="0" disallow="tram rail_urban rail rail_electric bicycle pedestrian ship" speed="27.78" length="10.15" shape="5394.96,2521.17 5397.87,2521.81 5399.80,2522.55 5401.60,2523.62 5404.13,2525.25"/>
    </edge>
    <edge id=":-206_0" function="internal">
        <lane id=":-206_0_0" index="0" disallow="tram rail_urban rail rail_electric bicycle pedestrian ship" speed="13.41" length="2.68" shape="5392.41,2510.85 5391.20,2508.20"/>
        <lane id=":-206_0_1" index="1" disallow="tram rail_urban rail rail_electric bicycle pedestrian ship" speed="13.41" length="2.68" shape="5392.41,2510.85 5389.69,2511.14"/>
        <lane id=":-206_0_2" index="2" disallow="tram rail_urban rail rail_electric bicycle pedestrian ship" speed="13.41" length="2.68" shape="5390.51,2513.56 5388.18,2514.07"/>
    </edge>
    <edge id=":-214_0" function="internal">
        <lane id=":-214_0_0" index="0" disallow="tram rail_urban rail rail_electric bicycle pedestrian ship" speed="13.41" length="4.65" shape="5264.80,2502.95 5266.64,2502.82 5268.05,2503.37 5269.36,2503.77 5270.93,2503.15"/>
        <lane id=":-214_0_1" index="1" disallow="tram rail_urban rail rail_electric bicycle pedestrian ship" speed="13.41" length="4.65" shape="5264.80,2502.95 5266.13,2502.45 5266.99,2502.00 5267.79,2501.43 5268.90,2500.55"/>
        <lane id=":-214_0_2" index="2" disallow="tram rail_urban rail rail_electric bicycle pedestrian ship" speed="13.41" length="4.65" shape="5263.38,2499.96 5264.50,2499.53 5265.24,2499.17 5265.92,2498.69 5266.87,2497.95"/>
        <lane id=":-214_0_3" index="3" disallow="tram rail_urban rail rail_electric bicycle pedestrian ship" speed="13.41" length="4.65" shape="5261.95,2496.96 5262.88,2496.62 5263.49,2496.33 5264.06,2495.95 5264.84,2495.35"/>
    </edge>
    <edge id=":-220_0" function="internal">
        <lane id=":-220_0_0" index="0" disallow="tram rail_urban rail rail_electric bicycle pedestrian ship" speed="13.41" length="2.30" shape="5254.88,2504.56 5257.19,2505.65"/>
        <lane id=":-220_0_1" index="1" disallow="tram rail_urban rail rail_electric bicycle pedestrian ship" speed="13.41" length="2.30" shape="5254.88,2504.56 5256.09,2502.54"/>
        <lane id=":-220_0_2" index="2" disallow="tram rail_urban rail rail_electric bicycle pedestrian ship" speed="13.41" length="2.30" shape="5254.32,2501.30 5254.99,2499.43"/>
    </edge>
    <edge id=":-226_0" function="internal">
        <lane id=":-226_0_0" index="0" disallow="tram rail_urban rail rail_electric ship" speed="22.29" length="18.78" shape="5642.23,4062.68 5644.92,4057.10 5647.27,4052.77 5649.72,4049.60 5652.69,4047.48"/>
    </edge>
    <edge id=":-226_1" function="internal">
        <lane id=":-226_1_0" index="0" disallow="tram rail_urban rail rail_electric bicycle pedestrian ship" speed="17.88" length="20.04" shape="5639.26,4061.25 5642.04,4056.07 5644.35,4052.75 5646.81,4049.52 5650.04,4044.58"/>
        <lane id=":-226_1_1" index="1" disallow="tram rail_urban rail rail_electric bicycle pedestrian ship" speed="17.88" length="20.04" shape="5636.28,4059.82 5639.11,4054.55 5641.46,4051.16 5643.95,4047.87 5647.21,4042.88"/>
    </edge>
    <edge id=":-226_3" function="internal">
        <lane id=":-226_3_0" index="0" disallow="tram rail_urban rail rail_electric ship" speed="17.81" length="21.26" shape="5633.58,4056.70 5639.96,4054.29 5645.02,4051.77 5649.14,4049.41 5652.69,4047.48"/>
    </edge>
    <edge id=":-226_4" function="internal">
        <lane id=":-226_4_0" index="0" disallow="tram rail_urban rail rail_electric bicycle pedestrian ship" speed="13.41" length="19.64" shape="5632.59,4053.55 5638.55,4052.09 5642.94,4051.11 5646.51,4049.12 5650.04,4044.58"/>
        <lane id=":-226_4_1" index="1" disallow="tram rail_urban rail rail_electric bicycle pedestrian ship" speed="13.41" length="19.64" shape="5632.59,4053.55 5637.86,4051.83 5641.39,4050.11 5644.18,4047.44 5647.21,4042.88"/>
    </edge>
    <edge id=":-238_0" function="internal">
        <lane id=":-238_0_0" index="0" disallow="tram rail_urban rail rail_electric bicycle pedestrian ship" speed="13.41" length="23.02" shape="5588.71,4030.58 5590.25,4036.94 5592.40,4041.78 5595.72,4045.88 5600.74,4050.04"/>
        <lane id=":-238_0_1" index="1" disallow="tram rail_urban rail rail_electric bicycle pedestrian ship" speed="13.41" length="23.02" shape="5591.72,4028.75 5593.09,4034.97 5594.88,4039.53 5597.84,4043.35 5602.69,4047.38"/>
    </edge>
    <edge id=":-300_0" function="internal">
        <lane id=":-300_0_0" index="0" disallow="tram rail_urban rail rail_electric bicycle pedestrian ship" speed="13.41" length="48.17" shape="5309.04,2457.13 5300.11,2464.55 5290.20,2471.28 5279.62,2476.68 5268.68,2480.15"/>
        <lane id=":-300_0_1" index="1" disallow="tram rail_urban rail rail_electric bicycle pedestrian ship" speed="13.41" length="48.17" shape="5310.88,2459.92 5301.77,2467.41 5291.46,2474.28 5280.47,2479.84 5269.35,2483.38"/>
        <lane id=":-300_0_2" index="2" disallow="tram rail_urban rail rail_electric bicycle pedestrian ship" speed="13.41" length="48.17" shape="5312.72,2462.70 5303.43,2470.26 5292.72,2477.29 5281.33,2483.00 5270.02,2486.61"/>
    </edge>
    <edge id=":-300_3" function="internal">
        <lane id=":-300_3_0" index="0" disallow="tram rail_urban rail rail_electric bicycle pedestrian ship" speed="20.59" length="22.74" shape="5312.72,2462.70 5305.81,2470.63 5303.49,2477.67 5305.16,2482.17"/>
    </edge>
    <edge id=":-300_21" function="internal">
        <lane id=":-300_21_0" index="0" speed="20.59" length="10.41" shape="5305.16,2482.17 5305.77,2483.82 5312.64,2489.08"/>
    </edge>
    <edge id=":-300_4" function="internal">
        <lane id=":-300_4_0" index="0" disallow="tram rail_urban rail rail_electric bicycle pedestrian ship" speed="13.41" length="9.96" shape="5319.27,2476.39 5317.78,2475.46 5317.24,2474.45 5317.65,2473.36 5319.02,2472.20"/>
        <lane id=":-300_4_1" index="1" disallow="tram rail_urban rail rail_electric bicycle pedestrian ship" speed="13.41" length="9.96" shape="5319.27,2476.39 5316.33,2474.68 5315.00,2472.95 5315.29,2471.21 5317.19,2469.45"/>
        <lane id=":-300_4_2" index="2" disallow="tram rail_urban rail rail_electric bicycle pedestrian ship" speed="13.41" length="9.96" shape="5319.27,2476.39 5314.88,2473.90 5312.77,2471.45 5312.93,2469.05 5315.37,2466.70"/>
    </edge>
    <edge id=":-300_7" function="internal">
        <lane id=":-300_7_0" index="0" disallow="tram rail_urban rail rail_electric bicycle pedestrian ship" speed="13.41" length="47.92" shape="5317.74,2479.32 5304.46,2475.52 5291.89,2475.48 5279.98,2477.56 5268.68,2480.15"/>
        <lane id=":-300_7_1" index="1" disallow="tram rail_urban rail rail_electric bicycle pedestrian ship" speed="13.41" length="47.92" shape="5316.21,2482.25 5303.27,2478.50 5291.46,2478.56 5280.31,2480.74 5269.35,2483.38"/>
        <lane id=":-300_7_2" index="2" disallow="tram rail_urban rail rail_electric bicycle pedestrian ship" speed="13.41" length="47.92" shape="5314.68,2485.18 5302.09,2481.47 5291.03,2481.64 5280.64,2483.93 5270.02,2486.61"/>
    </edge>
    <edge id=":-300_10" function="internal">
        <lane id=":-300_10_0" index="0" disallow="tram rail_urban rail rail_electric bicycle pedestrian ship" speed="20.59" length="38.01" shape="5277.71,2497.86 5287.68,2491.23 5296.82,2487.56 5305.14,2486.84 5312.64,2489.08"/>
    </edge>
    <edge id=":-300_11" function="internal">
        <lane id=":-300_11_0" index="0" disallow="tram rail_urban rail rail_electric bicycle pedestrian ship" speed="13.41" length="49.44" shape="5275.68,2495.26 5287.33,2487.61 5298.55,2482.19 5309.16,2477.53 5319.02,2472.20"/>
        <lane id=":-300_11_1" index="1" disallow="tram rail_urban rail rail_electric bicycle pedestrian ship" speed="13.41" length="49.44" shape="5273.65,2492.65 5285.34,2484.99 5296.62,2479.51 5307.31,2474.80 5317.19,2469.45"/>
        <lane id=":-300_11_2" index="2" disallow="tram rail_urban rail rail_electric bicycle pedestrian ship" speed="13.41" length="49.44" shape="5271.62,2490.05 5283.34,2482.36 5294.70,2476.83 5305.45,2472.07 5315.37,2466.70"/>
    </edge>
    <edge id=":-300_14" function="internal">
        <lane id=":-300_14_0" index="0" disallow="tram rail_urban rail rail_electric bicycle pedestrian ship" speed="17.81" length="27.17" shape="5285.85,2471.38 5287.38,2473.33 5285.03,2475.44 5278.80,2477.71 5268.68,2480.15"/>
        <lane id=":-300_14_1" index="1" disallow="tram rail_urban rail rail_electric bicycle pedestrian ship" speed="17.81" length="27.17" shape="5285.85,2471.38 5289.12,2474.44 5287.45,2477.46 5280.87,2480.44 5269.35,2483.38"/>
        <lane id=":-300_14_2" index="2" disallow="tram rail_urban rail rail_electric bicycle pedestrian ship" speed="17.81" length="27.17" shape="5285.85,2471.38 5290.85,2475.55 5289.88,2479.49 5282.94,2483.17 5270.02,2486.61"/>
    </edge>
    <edge id=":-300_17" function="internal">
        <lane id=":-300_17_0" index="0" disallow="tram rail_urban rail rail_electric bicycle pedestrian ship" speed="25.00" length="32.12" shape="5285.85,2471.38 5293.13,2475.82 5300.89,2481.13 5307.83,2486.00 5312.64,2489.08"/>
    </edge>
    <edge id=":-300_18" function="internal">
        <lane id=":-300_18_0" index="0" disallow="tram rail_urban rail rail_electric bicycle pedestrian ship" speed="17.81" length="29.92" shape="5288.80,2469.22 5297.84,2473.25 5305.88,2475.10 5312.94,2474.74 5319.02,2472.20"/>
        <lane id=":-300_18_1" index="1" disallow="tram rail_urban rail rail_electric bicycle pedestrian ship" speed="17.81" length="29.92" shape="5288.80,2469.22 5296.48,2472.41 5303.77,2473.52 5310.68,2472.53 5317.19,2469.45"/>
        <lane id=":-300_18_2" index="2" disallow="tram rail_urban rail rail_electric bicycle pedestrian ship" speed="17.81" length="29.92" shape="5288.80,2469.22 5295.13,2471.57 5301.66,2471.94 5308.41,2470.31 5315.37,2466.70"/>
    </edge>
    <edge id=":-304_0" function="internal">
        <lane id=":-304_0_0" index="0" disallow="tram rail_urban rail rail_electric bicycle pedestrian ship" speed="13.41" length="19.17" shape="5549.35,2331.18 5555.69,2332.70 5560.41,2334.48 5563.50,2336.53 5564.96,2338.83"/>
        <lane id=":-304_0_1" index="1" disallow="tram rail_urban rail rail_electric bicycle pedestrian ship" speed="13.41" length="19.17" shape="5549.35,2331.18 5557.24,2332.91 5563.01,2334.62 5566.64,2336.31 5568.15,2337.97"/>
    </edge>
    <edge id=":-304_2" function="internal">
        <lane id=":-304_2_0" index="0" disallow="tram rail_urban rail rail_electric bicycle pedestrian ship" speed="13.41" length="22.84" shape="5549.98,2327.94 5556.65,2329.47 5561.27,2331.00 5565.57,2332.81 5571.28,2335.16"/>
        <lane id=":-304_2_1" index="1" disallow="tram rail_urban rail rail_electric bicycle pedestrian ship" speed="13.41" length="22.84" shape="5550.61,2324.70 5557.49,2326.28 5562.29,2327.86 5566.71,2329.72 5572.47,2332.08"/>
    </edge>
    <edge id=":-304_4" function="internal">
        <lane id=":-304_4_0" index="0" disallow="tram rail_urban rail rail_electric bicycle pedestrian ship" speed="13.41" length="22.78" shape="5553.03,2320.75 5556.13,2326.13 5559.44,2329.64 5562.54,2333.23 5564.96,2338.83"/>
        <lane id=":-304_4_1" index="1" disallow="tram rail_urban rail rail_electric bicycle pedestrian ship" speed="13.41" length="22.78" shape="5555.53,2318.13 5558.73,2323.78 5562.29,2327.90 5565.62,2332.10 5568.15,2337.97"/>
    </edge>
    <edge id=":-304_6" function="internal">
        <lane id=":-304_6_0" index="0" disallow="tram rail_urban rail rail_electric bicycle pedestrian ship" speed="13.41" length="23.18" shape="5555.53,2318.13 5558.50,2324.07 5562.12,2328.88 5566.38,2332.58 5571.28,2335.16"/>
        <lane id=":-304_6_1" index="1" disallow="tram rail_urban rail rail_electric bicycle pedestrian ship" speed="13.41" length="23.18" shape="5555.53,2318.13 5557.93,2322.30 5561.56,2326.01 5566.40,2329.27 5572.47,2332.08"/>
    </edge>
    <edge id=":-32_0" function="internal">
        <lane id=":-32_0_0" index="0" disallow="tram rail_urban rail rail_electric ship" speed="27.78" length="8.14" shape="6652.73,2357.21 6650.40,2356.96 6648.83,2356.67 6647.27,2356.28 6645.00,2355.70"/>
        <lane id=":-32_0_1" index="1" disallow="tram rail_urban rail rail_electric ship" speed="27.78" length="8.14" shape="6652.44,2360.49 6649.97,2360.23 6648.29,2359.93 6646.63,2359.52 6644.22,2358.90"/>
    </edge>
    <edge id=":-32_2" function="internal">
        <lane id=":-32_2_0" index="0" disallow="tram rail_urban rail rail_electric ship" speed="25.00" length="3.52" shape="6652.44,2360.49 6650.44,2360.91 6649.29,2361.84"/>
    </edge>
    <edge id=":-32_10" function="internal">
        <lane id=":-32_10_0" index="0" speed="25.00" length="8.83" shape="6649.29,2361.84 6648.48,2362.50 6646.54,2365.27 6644.62,2369.23"/>
    </edge>
    <edge id=":-32_3" function="internal">
        <lane id=":-32_3_0" index="0" disallow="tram rail_urban rail rail_electric ship" speed="25.00" length="7.06" shape="6647.66,2370.50 6648.50,2368.91 6649.48,2367.81 6650.60,2367.20 6651.86,2367.07"/>
        <lane id=":-32_3_1" index="1" disallow="tram rail_urban rail rail_electric ship" speed="25.00" length="7.06" shape="6647.66,2370.50 6649.02,2367.51 6650.22,2365.39 6651.26,2364.15 6652.15,2363.78"/>
    </edge>
    <edge id=":-32_5" function="internal">
        <lane id=":-32_5_0" index="0" disallow="tram rail_urban rail rail_electric ship" speed="25.00" length="15.79" shape="6647.66,2370.50 6649.51,2364.76 6649.68,2360.38 6648.18,2357.36 6645.00,2355.70"/>
        <lane id=":-32_5_1" index="1" disallow="tram rail_urban rail rail_electric ship" speed="25.00" length="15.79" shape="6647.66,2370.50 6648.98,2366.12 6648.84,2362.72 6647.26,2360.32 6644.22,2358.90"/>
    </edge>
    <edge id=":-32_7" function="internal">
        <lane id=":-32_7_0" index="0" disallow="tram rail_urban rail rail_electric ship" speed="25.00" length="5.20" shape="6642.65,2365.31 6644.00,2365.86 6644.78,2366.69 6644.99,2367.82 6644.62,2369.23"/>
    </edge>
    <edge id=":-32_8" function="internal">
        <lane id=":-32_8_0" index="0" disallow="tram rail_urban rail rail_electric ship" speed="27.78" length="9.14" shape="6642.65,2365.31 6645.35,2366.00 6647.21,2366.46 6649.09,2366.78 6651.86,2367.07"/>
        <lane id=":-32_8_1" index="1" disallow="tram rail_urban rail rail_electric ship" speed="27.78" length="9.14" shape="6643.43,2362.11 6645.99,2362.76 6647.75,2363.19 6649.53,2363.50 6652.15,2363.78"/>
    </edge>
    <edge id=":-46_0" function="internal">
        <lane id=":-46_0_0" index="0" disallow="tram rail_urban rail rail_electric ship" speed="27.78" length="3.10" shape="5742.33,2246.09 5739.54,2243.45"/>
        <lane id=":-46_0_1" index="1" disallow="tram rail_urban rail rail_electric ship" speed="27.78" length="3.10" shape="5742.33,2246.09 5741.66,2246.29 5741.21,2246.44 5740.75,2246.58 5740.07,2246.71"/>
    </edge>
    <edge id=":-46_2" function="internal">
        <lane id=":-46_2_0" index="0" disallow="tram rail_urban rail rail_electric ship" speed="27.78" length="3.55" shape="5741.12,2253.16 5743.20,2249.27"/>
        <lane id=":-46_2_1" index="1" disallow="tram rail_urban rail rail_electric ship" speed="27.78" length="3.55" shape="5740.59,2249.90 5743.20,2249.27"/>
    </edge>
    <edge id=":-70_0" function="internal">
        <lane id=":-70_0_0" index="0" disallow="tram rail_urban rail rail_electric ship" speed="27.78" length="2.97" shape="6529.71,2317.53 6526.45,2319.52"/>
        <lane id=":-70_0_1" index="1" disallow="tram rail_urban rail rail_electric ship" speed="27.78" length="2.97" shape="6528.32,2320.52 6527.75,2320.26 6527.36,2320.06 6526.99,2319.85 6526.45,2319.52"/>
    </edge>
    <edge id=":-70_2" function="internal">
        <lane id=":-70_2_0" index="0" disallow="tram rail_urban rail rail_electric ship" speed="27.78" length="3.38" shape="6524.72,2322.33 6525.53,2326.51"/>
        <lane id=":-70_2_1" index="1" disallow="tram rail_urban rail rail_electric ship" speed="27.78" length="3.38" shape="6524.72,2322.33 6525.35,2322.72 6525.79,2322.97 6526.25,2323.20 6526.92,2323.51"/>
    </edge>
    <edge id=":-84_0" function="internal">
        <lane id=":-84_0_0" index="0" disallow="tram rail_urban rail rail_electric bicycle pedestrian ship" speed="27.78" length="12.97" shape="5533.32,2589.41 5521.51,2584.05"/>
    </edge>
    <edge id=":-84_1" function="internal">
        <lane id=":-84_1_0" index="0" disallow="tram rail_urban rail rail_electric ship" speed="27.78" length="7.71" shape="5533.32,2589.41 5529.18,2587.99 5525.85,2587.84"/>
    </edge>
    <edge id=":-84_6" function="internal">
        <lane id=":-84_6_0" index="0" speed="27.78" length="5.71" shape="5525.85,2587.84 5523.34,2588.98 5521.64,2591.39"/>
    </edge>
    <edge id=":-84_2" function="internal">
        <lane id=":-84_2_0" index="0" disallow="tram rail_urban rail rail_electric bicycle pedestrian ship" speed="27.78" length="5.03" shape="5527.98,2594.06 5528.60,2592.83 5529.47,2592.15 5530.59,2592.01 5531.96,2592.42"/>
    </edge>
    <edge id=":-84_3" function="internal">
        <lane id=":-84_3_0" index="0" disallow="tram rail_urban rail rail_electric bicycle pedestrian ship" speed="27.78" length="10.45" shape="5524.93,2592.77 5525.50,2589.89 5525.12,2587.48 5523.79,2585.53 5521.51,2584.05"/>
    </edge>
    <edge id=":-84_4" function="internal">
        <lane id=":-84_4_0" index="0" disallow="tram rail_urban rail rail_electric ship" speed="27.78" length="5.19" shape="5520.15,2587.06 5521.29,2587.80 5521.92,2588.77 5522.03,2589.97 5521.64,2591.39"/>
    </edge>
    <edge id=":-84_5" function="internal">
        <lane id=":-84_5_0" index="0" disallow="tram rail_urban rail rail_electric bicycle pedestrian ship" speed="27.78" length="12.97" shape="5520.15,2587.06 5531.96,2592.42"/>
    </edge>
    <edge id=":-88_0" function="internal">
        <lane id=":-88_0_0" index="0" disallow="tram rail_urban rail rail_electric bicycle pedestrian ship" speed="25.00" length="6.20" shape="6638.30,2810.73 6637.90,2812.00 6636.98,2812.94 6635.54,2813.53 6633.57,2813.79"/>
    </edge>
    <edge id=":-88_1" function="internal">
        <lane id=":-88_1_0" index="0" disallow="tram rail_urban rail rail_electric bicycle pedestrian ship" speed="25.00" length="16.15" shape="6638.30,2810.73 6637.03,2826.83"/>
    </edge>
    <edge id=":-88_2" function="internal">
        <lane id=":-88_2_0" index="0" disallow="tram rail_urban rail rail_electric ship" speed="22.22" length="13.58" shape="6638.30,2810.73 6638.42,2814.98 6639.71,2817.65 6642.17,2818.72 6645.81,2818.19"/>
    </edge>
    <edge id=":-88_3" function="internal">
        <lane id=":-88_3_0" index="0" disallow="tram rail_urban rail rail_electric ship" speed="22.22" length="6.54" shape="6644.83,2815.04 6643.23,2815.23 6642.15,2814.62 6641.61,2813.22 6641.59,2811.03"/>
    </edge>
    <edge id=":-88_4" function="internal">
        <lane id=":-88_4_0" index="0" disallow="tram rail_urban rail rail_electric bicycle pedestrian ship" speed="25.00" length="11.37" shape="6644.83,2815.04 6641.87,2815.96 6639.59,2816.54 6637.15,2816.88 6633.70,2817.09"/>
    </edge>
    <edge id=":-88_5" function="internal">
        <lane id=":-88_5_0" index="0" disallow="tram rail_urban rail rail_electric bicycle pedestrian ship" speed="25.00" length="8.71" shape="6644.83,2815.04 6641.65,2816.62 6639.29,2819.11 6638.58,2820.69"/>
    </edge>
    <edge id=":-88_12" function="internal">
        <lane id=":-88_12_0" index="0" speed="25.00" length="6.38" shape="6638.58,2820.69 6637.75,2822.51 6637.03,2826.83"/>
    </edge>
    <edge id=":-88_6" function="internal">
        <lane id=":-88_6_0" index="0" disallow="tram rail_urban rail rail_electric ship" speed="25.00" length="11.10" shape="6640.32,2827.04 6640.84,2823.76 6641.93,2821.19 6643.59,2819.33 6645.81,2818.19"/>
    </edge>
    <edge id=":-88_7" function="internal">
        <lane id=":-88_7_0" index="0" disallow="tram rail_urban rail rail_electric ship" speed="25.00" length="16.06" shape="6640.32,2827.04 6641.59,2811.03"/>
    </edge>
    <edge id=":-88_8" function="internal">
        <lane id=":-88_8_0" index="0" disallow="tram rail_urban rail rail_electric bicycle pedestrian ship" speed="27.78" length="13.84" shape="6640.32,2827.04 6640.16,2822.58 6639.00,2819.43 6636.85,2817.60 6633.70,2817.09"/>
    </edge>
    <edge id=":-88_9" function="internal">
        <lane id=":-88_9_0" index="0" disallow="tram rail_urban rail rail_electric bicycle pedestrian ship" speed="27.78" length="5.13" shape="6633.97,2823.69 6635.39,2823.83 6636.37,2824.40 6636.92,2825.40 6637.03,2826.83"/>
    </edge>
    <edge id=":-88_10" function="internal">
        <lane id=":-88_10_0" index="0" disallow="tram rail_urban rail rail_electric ship" speed="25.00" length="13.25" shape="6633.97,2823.69 6637.90,2822.93 6640.54,2821.40 6642.86,2819.64 6645.81,2818.19"/>
    </edge>
    <edge id=":-88_11" function="internal">
        <lane id=":-88_11_0" index="0" disallow="tram rail_urban rail rail_electric ship" speed="25.00" length="5.48" shape="6633.83,2820.39 6636.91,2819.70 6638.75,2818.28"/>
    </edge>
    <edge id=":-88_13" function="internal">
        <lane id=":-88_13_0" index="0" speed="25.00" length="7.95" shape="6638.75,2818.28 6639.22,2817.91 6640.78,2815.02 6641.59,2811.03"/>
    </edge>
    <edge id=":-92_0" function="internal">
        <lane id=":-92_0_0" index="0" disallow="tram rail_urban rail rail_electric bicycle pedestrian ship" speed="27.78" length="3.72" shape="6612.95,2812.89 6609.64,2815.92"/>
        <lane id=":-92_0_1" index="1" disallow="tram rail_urban rail rail_electric bicycle pedestrian ship" speed="27.78" length="3.72" shape="6612.59,2816.17 6609.64,2815.92"/>
    </edge>
    <edge id=":-92_2" function="internal">
        <lane id=":-92_2_0" index="0" disallow="tram rail_urban rail rail_electric bicycle pedestrian ship" speed="27.78" length="3.53" shape="6609.44,2819.21 6611.87,2822.73"/>
        <lane id=":-92_2_1" index="1" disallow="tram rail_urban rail rail_electric bicycle pedestrian ship" speed="27.78" length="3.53" shape="6609.44,2819.21 6612.23,2819.45"/>
    </edge>
    <edge id=":1077021823_0" function="internal">
        <lane id=":1077021823_0_0" index="0" disallow="tram rail_urban rail rail_electric ship" speed="22.22" length="6.03" shape="5467.84,3850.06 5469.72,3850.47 5471.24,3851.01 5472.40,3851.70 5473.20,3852.52"/>
    </edge>
    <edge id=":1077021823_1" function="internal">
        <lane id=":1077021823_1_0" index="0" disallow="tram rail_urban rail rail_electric ship" speed="22.22" length="6.88" shape="5470.80,3846.34 5470.78,3848.32 5471.18,3849.65 5471.99,3850.87 5473.20,3852.52"/>
    </edge>
    <edge id=":1094810432_0" function="internal">
        <lane id=":1094810432_0_0" index="0" disallow="tram rail_urban rail rail_electric bicycle pedestrian ship" speed="22.29" length="13.86" shape="5640.79,3459.54 5638.65,3456.85 5636.54,3454.56 5634.94,3451.81 5634.38,3447.73"/>
    </edge>
    <edge id=":1094810432_1" function="internal">
        <lane id=":1094810432_1_0" index="0" disallow="tram rail_urban rail rail_electric bicycle pedestrian ship" speed="22.29" length="13.97" shape="5637.70,3461.15 5636.44,3458.04 5635.34,3455.27 5634.59,3452.08 5634.38,3447.73"/>
    </edge>
    <edge id=":1094810432_2" function="internal">
        <lane id=":1094810432_2_0" index="0" disallow="tram rail_urban rail rail_electric bicycle pedestrian ship" speed="22.35" length="13.57" shape="5633.88,3461.31 5634.38,3447.73"/>
        <lane id=":1094810432_2_1" index="1" disallow="tram rail_urban rail rail_electric bicycle pedestrian ship" speed="22.35" length="13.57" shape="5630.58,3461.19 5631.08,3447.65"/>
    </edge>
    <edge id=":1094810599_0" function="internal">
        <lane id=":1094810599_0_0" index="0" disallow="tram rail_urban rail rail_electric ship" speed="22.22" length="5.78" shape="5664.10,3476.99 5662.38,3476.93 5661.20,3476.90 5660.04,3476.74 5658.39,3476.31"/>
    </edge>
    <edge id=":1094810599_1" function="internal">
        <lane id=":1094810599_1_0" index="0" disallow="tram rail_urban rail rail_electric ship" speed="22.22" length="4.07" shape="5659.89,3480.71 5661.07,3480.44 5661.88,3480.29 5662.71,3480.24 5663.91,3480.29"/>
    </edge>
    <edge id=":1094810599_2" function="internal">