<?xml version="1.0" encoding="UTF-8"?>

<!-- generated on 18/05/2017 22:46:39 by Netedit Version 0.29.0
<?xml version="1.0" encoding="UTF-8"?>

<configuration xmlns:xsi="http://www.w3.org/2001/XMLSchema-instance" xsi:noNamespaceSchemaLocation="http://sumo.dlr.de/xsd/netedit.exeConfiguration.xsd">

    <input>
        <sumo-net-file value="C:\Users\z003e4fv\Desktop\SUMO\Tutorials\Multi_Road\Multi_Road_Test_Random\multiRoad.net.xml"/>
    </input>

    <output>
        <output-file value="C:\Users\z003e4fv\Desktop\SUMO\Tutorials\Multi_Road\Multi_Road_Test_Random\multiRoad.net.xml"/>
    </output>

    <processing>
        <no-turnarounds value="true"/>
        <offset.disable-normalization value="true"/>
        <lefthand value="false"/>
        <junctions.corner-detail value="0"/>
    </processing>

</configuration>
-->

<net version="0.27" xmlns:xsi="http://www.w3.org/2001/XMLSchema-instance" xsi:noNamespaceSchemaLocation="http://sumo.dlr.de/xsd/net_file.xsd">

    <location netOffset="250.00,0.00" convBoundary="-1000.00,-500.00,1000.00,500.00" origBoundary="-250.00,0.00,251.00,0.00" projParameter="!"/>

    <edge id=":0_0" function="internal">
        <lane id=":0_0_0" index="0" speed="13.90" length="5.00" shape="498.35,8.05 498.16,6.69 497.58,5.73 496.61,5.14 495.25,4.95"/>
    </edge>
    <edge id=":0_1" function="internal">
        <lane id=":0_1_0" index="0" speed="13.89" length="16.10" shape="498.35,8.05 498.35,-8.05"/>
    </edge>
    <edge id=":0_2" function="internal">
        <lane id=":0_2_0" index="0" speed="13.89" length="13.09" shape="498.35,8.05 498.75,3.81 499.95,0.77 501.95,-1.04 504.75,-1.65"/>
    </edge>
    <edge id=":0_3" function="internal">
        <lane id=":0_3_0" index="0" speed="13.89" length="5.00" shape="504.75,4.95 503.39,5.14 502.42,5.73 501.84,6.69 501.65,8.05"/>
    </edge>
    <edge id=":0_4" function="internal">
        <lane id=":0_4_0" index="0" speed="13.90" length="9.50" shape="504.75,4.95 495.25,4.95"/>
        <lane id=":0_4_1" index="1" speed="13.90" length="9.50" shape="504.75,1.65 495.25,1.65"/>
    </edge>
    <edge id=":0_6" function="internal">
        <lane id=":0_6_0" index="0" speed="13.89" length="13.09" shape="504.75,1.65 501.95,1.04 499.95,-0.78 498.75,-3.81 498.35,-8.05"/>
    </edge>
    <edge id=":0_7" function="internal">
        <lane id=":0_7_0" index="0" speed="13.89" length="5.00" shape="501.65,-8.05 501.84,-6.69 502.42,-5.73 503.39,-5.14 504.75,-4.95"/>
    </edge>
    <edge id=":0_8" function="internal">
        <lane id=":0_8_0" index="0" speed="13.89" length="16.10" shape="501.65,-8.05 501.65,8.05"/>
    </edge>
    <edge id=":0_9" function="internal">
        <lane id=":0_9_0" index="0" speed="13.90" length="13.09" shape="501.65,-8.05 501.25,-3.81 500.05,-0.77 498.05,1.04 495.25,1.65"/>
    </edge>
    <edge id=":0_10" function="internal">
        <lane id=":0_10_0" index="0" speed="13.90" length="5.00" shape="495.25,-4.95 496.61,-5.14 497.58,-5.73 498.16,-6.69 498.35,-8.05"/>
    </edge>
    <edge id=":0_11" function="internal">
        <lane id=":0_11_0" index="0" speed="13.90" length="9.50" shape="495.25,-4.95 504.75,-4.95"/>
        <lane id=":0_11_1" index="1" speed="13.90" length="9.50" shape="495.25,-1.65 504.75,-1.65"/>
    </edge>
    <edge id=":0_13" function="internal">
        <lane id=":0_13_0" index="0" speed="13.90" length="13.09" shape="495.25,-1.65 498.05,-1.04 500.05,0.78 501.25,3.81 501.65,8.05"/>
    </edge>
    <edge id=":2_0" function="internal">
        <lane id=":2_0_0" index="0" speed="13.89" length="5.00" shape="998.35,8.05 998.16,6.69 997.58,5.73 996.61,5.14 995.25,4.95"/>
    </edge>
    <edge id=":2_1" function="internal">
        <lane id=":2_1_0" index="0" speed="13.89" length="16.10" shape="998.35,8.05 998.35,-8.05"/>
    </edge>
    <edge id=":2_2" function="internal">
        <lane id=":2_2_0" index="0" speed="13.89" length="16.10" shape="1001.65,-8.05 1001.65,8.05"/>
    </edge>
    <edge id=":2_3" function="internal">
        <lane id=":2_3_0" index="0" speed="13.89" length="7.66" shape="1001.65,-8.05 1001.25,-3.81 1000.05,-0.77 999.95,-0.68"/>
    </edge>
    <edge id=":2_6" function="internal">
        <lane id=":2_6_0" index="0" speed="13.89" length="5.43" shape="999.95,-0.68 998.05,1.04 995.25,1.65"/>
    </edge>
    <edge id=":2_4" function="internal">
        <lane id=":2_4_0" index="0" speed="13.89" length="5.00" shape="995.25,-4.95 996.61,-5.14 997.57,-5.73 998.16,-6.69 998.35,-8.05"/>
    </edge>
    <edge id=":2_5" function="internal">
        <lane id=":2_5_0" index="0" speed="13.89" length="13.09" shape="995.25,-1.65 998.05,-1.04 1000.05,0.78 1001.25,3.81 1001.65,8.05"/>
    </edge>
    <edge id=":4_0" function="internal">
        <lane id=":4_0_0" index="0" speed="13.89" length="5.00" shape="-251.65,8.05 -251.84,6.69 -252.43,5.73 -253.39,5.14 -254.75,4.95"/>
    </edge>
    <edge id=":4_1" function="internal">
        <lane id=":4_1_0" index="0" speed="13.89" length="16.10" shape="-251.65,8.05 -251.65,-8.05"/>
    </edge>
    <edge id=":4_2" function="internal">
        <lane id=":4_2_0" index="0" speed="13.90" length="15.64" shape="-251.65,8.05 -251.04,3.81 -249.23,0.77 -246.19,-1.04 -241.95,-1.65"/>
    </edge>
    <edge id=":4_3" function="internal">
        <lane id=":4_3_0" index="0" speed="13.90" length="5.00" shape="-241.95,4.95 -243.31,5.14 -244.27,5.73 -244.86,6.69 -245.05,8.05"/>
    </edge>
    <edge id=":4_4" function="internal">
        <lane id=":4_4_0" index="0" speed="13.90" length="12.80" shape="-241.95,4.95 -254.75,4.95"/>
        <lane id=":4_4_1" index="1" speed="13.90" length="12.80" shape="-241.95,1.65 -254.75,1.65"/>
    </edge>
    <edge id=":4_6" function="internal">
        <lane id=":4_6_0" index="0" speed="13.90" length="15.64" shape="-241.95,1.65 -246.19,1.04 -249.22,-0.78 -251.04,-3.81 -251.65,-8.05"/>
    </edge>
    <edge id=":4_7" function="internal">
        <lane id=":4_7_0" index="0" speed="13.90" length="7.85" shape="-248.35,-8.05 -247.95,-6.69 -246.75,-5.73 -244.75,-5.14 -241.95,-4.95"/>
    </edge>
    <edge id=":4_8" function="internal">
        <lane id=":4_8_0" index="0" speed="13.89" length="16.10" shape="-248.35,-8.05 -248.35,8.05"/>
    </edge>
    <edge id=":4_9" function="internal">
        <lane id=":4_9_0" index="0" speed="13.89" length="13.09" shape="-248.35,-8.05 -248.75,-3.81 -249.95,-0.77 -251.95,1.04 -254.75,1.65"/>
    </edge>
    <edge id=":4_10" function="internal">
        <lane id=":4_10_0" index="0" speed="13.89" length="5.00" shape="-254.75,-4.95 -253.39,-5.14 -252.42,-5.73 -251.84,-6.69 -251.65,-8.05"/>
    </edge>
    <edge id=":4_11" function="internal">
        <lane id=":4_11_0" index="0" speed="13.90" length="12.80" shape="-254.75,-4.95 -241.95,-4.95"/>
        <lane id=":4_11_1" index="1" speed="13.90" length="12.80" shape="-254.75,-1.65 -241.95,-1.65"/>
    </edge>
    <edge id=":4_13" function="internal">
        <lane id=":4_13_0" index="0" speed="13.89" length="13.09" shape="-254.75,-1.65 -251.95,-1.04 -249.95,0.78 -248.75,3.81 -248.35,8.05"/>
    </edge>

    <edge id="-A1" from="0" to="1" priority="1">
        <lane id="-A1_0" index="0" speed="13.89" length="491.95" shape="501.65,8.05 501.65,500.00"/>
    </edge>
    <edge id="-A2" from="0" to="2" priority="1">
        <lane id="-A2_0" index="0" speed="13.89" length="490.50" shape="504.75,-4.95 995.25,-4.95"/>
        <lane id="-A2_1" index="1" speed="13.89" length="490.50" shape="504.75,-1.65 995.25,-1.65"/>
    </edge>
    <edge id="-A3" from="0" to="3" priority="1">
        <lane id="-A3_0" index="0" speed="13.89" length="491.95" shape="498.35,-8.05 498.35,-500.00"/>
    </edge>
    <edge id="-A4" from="0" to="4" priority="-1">
        <lane id="-A4_0" index="0" speed="13.90" length="737.20" shape="495.25,4.95 -241.95,4.95"/>
        <lane id="-A4_1" index="1" speed="13.90" length="737.20" shape="495.25,1.65 -241.95,1.65"/>
    </edge>
    <edge id="-A5" from="2" to="5" priority="1">
        <lane id="-A5_0" index="0" speed="13.89" length="391.95" shape="1001.65,8.05 1001.65,400.00"/>
    </edge>
    <edge id="-A6" from="2" to="6" priority="1">
        <lane id="-A6_0" index="0" speed="13.89" length="391.95" shape="998.35,-8.05 998.35,-400.00"/>
    </edge>
    <edge id="-A7" from="4" to="7" priority="1">
        <lane id="-A7_0" index="0" speed="13.89" length="491.95" shape="-245.05,8.05 -245.05,500.00"/>
        <lane id="-A7_1" index="1" speed="13.89" length="491.95" shape="-248.35,8.05 -248.35,500.00"/>
    </edge>
    <edge id="-A8" from="4" to="8" priority="1">
        <lane id="-A8_0" index="0" speed="13.89" length="491.95" shape="-251.65,-8.05 -251.65,-500.00"/>
    </edge>
    <edge id="-A9" from="4" to="9" priority="1">
        <lane id="-A9_0" index="0" speed="13.89" length="745.25" shape="-254.75,4.95 -1000.00,4.95"/>
        <lane id="-A9_1" index="1" speed="13.89" length="745.25" shape="-254.75,1.65 -1000.00,1.65"/>
    </edge>
    <edge id="A1" from="1" to="0" priority="1">
        <lane id="A1_0" index="0" speed="13.89" length="491.95" shape="498.35,500.00 498.35,8.05"/>
    </edge>
    <edge id="A2" from="2" to="0" priority="1">
        <lane id="A2_0" index="0" speed="13.89" length="490.50" shape="995.25,4.95 504.75,4.95"/>
        <lane id="A2_1" index="1" speed="13.89" length="490.50" shape="995.25,1.65 504.75,1.65"/>
    </edge>
    <edge id="A3" from="3" to="0" priority="1">
        <lane id="A3_0" index="0" speed="13.89" length="491.95" shape="501.65,-500.00 501.65,-8.05"/>
    </edge>
    <edge id="A4" from="4" to="0" priority="-1">
        <lane id="A4_0" index="0" speed="13.90" length="737.20" shape="-241.95,-4.95 495.25,-4.95"/>
        <lane id="A4_1" index="1" speed="13.90" length="737.20" shape="-241.95,-1.65 495.25,-1.65"/>
    </edge>
    <edge id="A5" from="5" to="2" priority="1">
        <lane id="A5_0" index="0" speed="13.89" length="391.95" shape="998.35,400.00 998.35,8.05"/>
    </edge>
    <edge id="A6" from="6" to="2" priority="1">
        <lane id="A6_0" index="0" speed="13.89" length="391.95" shape="1001.65,-400.00 1001.65,-8.05"/>
    </edge>
    <edge id="A7" from="7" to="4" priority="1">
        <lane id="A7_0" index="0" speed="13.89" length="491.95" shape="-251.65,500.00 -251.65,8.05"/>
    </edge>
    <edge id="A8" from="8" to="4" priority="1">
        <lane id="A8_0" index="0" speed="13.89" length="491.95" shape="-248.35,-500.00 -248.35,-8.05"/>
    </edge>
    <edge id="A9" from="9" to="4" priority="1">
        <lane id="A9_0" index="0" speed="13.89" length="745.25" shape="-1000.00,-4.95 -254.75,-4.95"/>
        <lane id="A9_1" index="1" speed="13.89" length="745.25" shape="-1000.00,-1.65 -254.75,-1.65"/>
    </edge>

    <tlLogic id="0" type="static" programID="0" offset="0">
        <phase duration="20" state="GGGrrrrrrrrrrr"/>
        <phase duration="5" state="yyyrrrrrrrrrrr"/>
        <phase duration="20" state="rrrGGGGrrrrrrr"/>
        <phase duration="5" state="rrryyyyrrrrrrr"/>
        <phase duration="20" state="rrrrrrrGGGrrrr"/>
        <phase duration="5" state="rrrrrrryyyrrrr"/>
        <phase duration="20" state="rrrrrrrrrrGGGG"/>
        <phase duration="5" state="rrrrrrrrrryyyy"/>
    </tlLogic>
    <tlLogic id="2" type="static" programID="0" offset="0">
        <phase duration="40" state="GGGgrr"/>
        <phase duration="5" state="yyygrr"/>
        <phase duration="6" state="rrrGrr"/>
        <phase duration="5" state="rrryrr"/>
        <phase duration="39" state="GrrrGG"/>
        <phase duration="5" state="yrrryy"/>
    </tlLogic>
    <tlLogic id="4" type="static" programID="0" offset="0">
        <phase duration="20" state="GGGrrrrrrrrrrr"/>
        <phase duration="5" state="yyyrrrrrrrrrrr"/>
        <phase duration="20" state="rrrGGGGrrrrrrr"/>
        <phase duration="5" state="rrryyyyrrrrrrr"/>
        <phase duration="20" state="rrrrrrrGGGrrrr"/>
        <phase duration="5" state="rrrrrrryyyrrrr"/>
        <phase duration="20" state="rrrrrrrrrrGGGG"/>
        <phase duration="5" state="rrrrrrrrrryyyy"/>
    </tlLogic>

    <junction id="0" type="traffic_light" x="500.00" y="0.00" incLanes="A1_0 A2_0 A2_1 A3_0 A4_0 A4_1" intLanes=":0_0_0 :0_1_0 :0_2_0 :0_3_0 :0_4_0 :0_4_1 :0_6_0 :0_7_0 :0_8_0 :0_9_0 :0_10_0 :0_11_0 :0_11_1 :0_13_0" shape="496.75,8.05 503.25,8.05 504.75,6.55 504.75,-6.55 503.25,-8.05 496.75,-8.05 495.25,-6.55 495.25,6.55">
        <request index="0" response="00000000110000" foes="00001000110000" cont="0"/>
        <request index="1" response="11110001110000" foes="11111001110000" cont="0"/>
        <request index="2" response="11100111110000" foes="11100111110000" cont="0"/>
        <request index="3" response="00000000000000" foes="10000100000000" cont="0"/>
        <request index="4" response="00000000000000" foes="10001100000111" cont="0"/>
        <request index="5" response="00000000000000" foes="10001100000111" cont="0"/>
        <request index="6" response="01110000000000" foes="01111100000110" cont="0"/>
        <request index="7" response="01100000000000" foes="01100000000100" cont="0"/>
        <request index="8" response="11100001111000" foes="11100001111100" cont="0"/>
        <request index="9" response="11100001110011" foes="11100001110011" cont="0"/>
        <request index="10" response="00000000000000" foes="00000001000010" cont="0"/>
        <request index="11" response="00000000000000" foes="00001111000110" cont="0"/>
        <request index="12" response="00000000000000" foes="00001111000110" cont="0"/>
        <request index="13" response="00000000111000" foes="00001100111110" cont="0"/>
    </junction>
    <junction id="1" type="dead_end" x="500.00" y="500.00" incLanes="-A1_0" intLanes="" shape="499.95,500.00 503.25,500.00 500.05,500.00"/>
    <junction id="2" type="traffic_light" x="1000.00" y="0.00" incLanes="A5_0 A6_0 -A2_0 -A2_1" intLanes=":2_0_0 :2_1_0 :2_2_0 :2_6_0 :2_4_0 :2_5_0" shape="996.75,8.05 1003.25,8.05 1003.25,-8.05 996.75,-8.05 995.25,-6.55 995.25,6.55">
        <request index="0" response="000000" foes="000000" cont="0"/>
        <request index="1" response="110000" foes="111000" cont="0"/>
        <request index="2" response="100000" foes="100000" cont="0"/>
        <request index="3" response="100010" foes="100010" cont="1"/>
        <request index="4" response="000000" foes="000010" cont="0"/>
        <request index="5" response="000000" foes="001110" cont="0"/>
    </junction>
    <junction id="3" type="dead_end" x="500.00" y="-500.00" incLanes="-A3_0" intLanes="" shape="500.05,-500.00 496.75,-500.00 499.95,-500.00"/>
    <junction id="4" type="traffic_light" x="-250.00" y="0.00" incLanes="A7_0 -A4_0 -A4_1 A8_0 A9_0 A9_1" intLanes=":4_0_0 :4_1_0 :4_2_0 :4_3_0 :4_4_0 :4_4_1 :4_6_0 :4_7_0 :4_8_0 :4_9_0 :4_10_0 :4_11_0 :4_11_1 :4_13_0" shape="-253.25,8.05 -243.45,8.05 -241.95,6.55 -241.95,-6.55 -246.75,-8.05 -253.25,-8.05 -254.75,-6.55 -254.75,6.55">
        <request index="0" response="00000000110000" foes="00001000110000" cont="0"/>
        <request index="1" response="11110001110000" foes="11111001110000" cont="0"/>
        <request index="2" response="11100111110000" foes="11100111110000" cont="0"/>
        <request index="3" response="00000000000000" foes="10000100000000" cont="0"/>
        <request index="4" response="00000000000000" foes="10001100000111" cont="0"/>
        <request index="5" response="00000000000000" foes="10001100000111" cont="0"/>
        <request index="6" response="01110000000000" foes="01111100000110" cont="0"/>
        <request index="7" response="01100000000000" foes="01100000000100" cont="0"/>
        <request index="8" response="11100001111000" foes="11100001111100" cont="0"/>
        <request index="9" response="11100001110011" foes="11100001110011" cont="0"/>
        <request index="10" response="00000000000000" foes="00000001000010" cont="0"/>
        <request index="11" response="00000000000000" foes="00001111000110" cont="0"/>
        <request index="12" response="00000000000000" foes="00001111000110" cont="0"/>
        <request index="13" response="00000000111000" foes="00001100111110" cont="0"/>
    </junction>
    <junction id="5" type="dead_end" x="1000.00" y="400.00" incLanes="-A5_0" intLanes="" shape="999.95,400.00 1003.25,400.00 1000.05,400.00"/>
    <junction id="6" type="dead_end" x="1000.00" y="-400.00" incLanes="-A6_0" intLanes="" shape="1000.05,-400.00 996.75,-400.00 999.95,-400.00"/>
    <junction id="7" type="dead_end" x="-250.00" y="500.00" incLanes="-A7_0 -A7_1" intLanes="" shape="-250.05,500.00 -243.45,500.00 -249.95,500.00"/>
    <junction id="8" type="dead_end" x="-250.00" y="-500.00" incLanes="-A8_0" intLanes="" shape="-249.95,-500.00 -253.25,-500.00 -250.05,-500.00"/>
    <junction id="9" type="dead_end" x="-1000.00" y="0.00" incLanes="-A9_0 -A9_1" intLanes="" shape="-1000.00,-0.05 -1000.00,6.55 -1000.00,0.05"/>

    <junction id=":2_6_0" type="internal" x="999.95" y="-0.68" incLanes=":2_3_0 A5_0" intLanes=":2_1_0 :2_5_0"/>

    <connection from="-A2" to="-A6" fromLane="0" toLane="0" via=":2_4_0" tl="2" linkIndex="4" dir="r" state="o"/>
    <connection from="-A2" to="-A5" fromLane="1" toLane="0" via=":2_5_0" tl="2" linkIndex="5" dir="l" state="o"/>
    <connection from="-A4" to="-A7" fromLane="0" toLane="0" via=":4_3_0" tl="4" linkIndex="3" dir="r" state="o"/>
    <connection from="-A4" to="-A9" fromLane="0" toLane="0" via=":4_4_0" tl="4" linkIndex="4" dir="s" state="o"/>
    <connection from="-A4" to="-A9" fromLane="1" toLane="1" via=":4_4_1" tl="4" linkIndex="5" dir="s" state="o"/>
    <connection from="-A4" to="-A8" fromLane="1" toLane="0" via=":4_6_0" tl="4" linkIndex="6" dir="l" state="o"/>
    <connection from="A1" to="-A4" fromLane="0" toLane="0" via=":0_0_0" tl="0" linkIndex="0" dir="r" state="o"/>
    <connection from="A1" to="-A3" fromLane="0" toLane="0" via=":0_1_0" tl="0" linkIndex="1" dir="s" state="o"/>
    <connection from="A1" to="-A2" fromLane="0" toLane="1" via=":0_2_0" tl="0" linkIndex="2" dir="l" state="o"/>
    <connection from="A2" to="-A1" fromLane="0" toLane="0" via=":0_3_0" tl="0" linkIndex="3" dir="r" state="o"/>
    <connection from="A2" to="-A4" fromLane="0" toLane="0" via=":0_4_0" tl="0" linkIndex="4" dir="s" state="o"/>
    <connection from="A2" to="-A4" fromLane="1" toLane="1" via=":0_4_1" tl="0" linkIndex="5" dir="s" state="o"/>
    <connection from="A2" to="-A3" fromLane="1" toLane="0" via=":0_6_0" tl="0" linkIndex="6" dir="l" state="o"/>
    <connection from="A3" to="-A2" fromLane="0" toLane="0" via=":0_7_0" tl="0" linkIndex="7" dir="r" state="o"/>
    <connection from="A3" to="-A1" fromLane="0" toLane="0" via=":0_8_0" tl="0" linkIndex="8" dir="s" state="o"/>
    <connection from="A3" to="-A4" fromLane="0" toLane="1" via=":0_9_0" tl="0" linkIndex="9" dir="l" state="o"/>
    <connection from="A4" to="-A3" fromLane="0" toLane="0" via=":0_10_0" tl="0" linkIndex="10" dir="r" state="o"/>
    <connection from="A4" to="-A2" fromLane="0" toLane="0" via=":0_11_0" tl="0" linkIndex="11" dir="s" state="o"/>
    <connection from="A4" to="-A2" fromLane="1" toLane="1" via=":0_11_1" tl="0" linkIndex="12" dir="s" state="o"/>
    <connection from="A4" to="-A1" fromLane="1" toLane="0" via=":0_13_0" tl="0" linkIndex="13" dir="l" state="o"/>
    <connection from="A5" to="A2" fromLane="0" toLane="0" via=":2_0_0" tl="2" linkIndex="0" dir="r" state="o"/>
    <connection from="A5" to="-A6" fromLane="0" toLane="0" via=":2_1_0" tl="2" linkIndex="1" dir="s" state="o"/>
    <connection from="A6" to="-A5" fromLane="0" toLane="0" via=":2_2_0" tl="2" linkIndex="2" dir="s" state="o"/>
    <connection from="A6" to="A2" fromLane="0" toLane="1" via=":2_3_0" tl="2" linkIndex="3" dir="l" state="o"/>
    <connection from="A7" to="-A9" fromLane="0" toLane="0" via=":4_0_0" tl="4" linkIndex="0" dir="r" state="o"/>
    <connection from="A7" to="-A8" fromLane="0" toLane="0" via=":4_1_0" tl="4" linkIndex="1" dir="s" state="o"/>
    <connection from="A7" to="A4" fromLane="0" toLane="1" via=":4_2_0" tl="4" linkIndex="2" dir="l" state="o"/>
    <connection from="A8" to="A4" fromLane="0" toLane="0" via=":4_7_0" tl="4" linkIndex="7" dir="r" state="o"/>
    <connection from="A8" to="-A7" fromLane="0" toLane="1" via=":4_8_0" tl="4" linkIndex="8" dir="s" state="o"/>
    <connection from="A8" to="-A9" fromLane="0" toLane="1" via=":4_9_0" tl="4" linkIndex="9" dir="l" state="o"/>
    <connection from="A9" to="-A8" fromLane="0" toLane="0" via=":4_10_0" tl="4" linkIndex="10" dir="r" state="o"/>
    <connection from="A9" to="A4" fromLane="0" toLane="0" via=":4_11_0" tl="4" linkIndex="11" dir="s" state="o"/>
    <connection from="A9" to="A4" fromLane="1" toLane="1" via=":4_11_1" tl="4" linkIndex="12" dir="s" state="o"/>
    <connection from="A9" to="-A7" fromLane="1" toLane="1" via=":4_13_0" tl="4" linkIndex="13" dir="l" state="o"/>

    <connection from=":0_0" to="-A4" fromLane="0" toLane="0" dir="s" state="M"/>
    <connection from=":0_1" to="-A3" fromLane="0" toLane="0" dir="s" state="M"/>
    <connection from=":0_2" to="-A2" fromLane="0" toLane="1" dir="s" state="M"/>
    <connection from=":0_3" to="-A1" fromLane="0" toLane="0" dir="s" state="M"/>
    <connection from=":0_4" to="-A4" fromLane="0" toLane="0" dir="s" state="M"/>
    <connection from=":0_4" to="-A4" fromLane="1" toLane="1" dir="s" state="M"/>
    <connection from=":0_6" to="-A3" fromLane="0" toLane="0" dir="s" state="M"/>
    <connection from=":0_7" to="-A2" fromLane="0" toLane="0" dir="s" state="M"/>
    <connection from=":0_8" to="-A1" fromLane="0" toLane="0" dir="s" state="M"/>
    <connection from=":0_9" to="-A4" fromLane="0" toLane="1" dir="s" state="M"/>
    <connection from=":0_10" to="-A3" fromLane="0" toLane="0" dir="s" state="M"/>
    <connection from=":0_11" to="-A2" fromLane="0" toLane="0" dir="s" state="M"/>
    <connection from=":0_11" to="-A2" fromLane="1" toLane="1" dir="s" state="M"/>
    <connection from=":0_13" to="-A1" fromLane="0" toLane="0" dir="s" state="M"/>
    <connection from=":2_0" to="A2" fromLane="0" toLane="0" dir="s" state="M"/>
    <connection from=":2_1" to="-A6" fromLane="0" toLane="0" dir="s" state="M"/>
    <connection from=":2_2" to="-A5" fromLane="0" toLane="0" dir="s" state="M"/>
    <connection from=":2_3" to="A2" fromLane="0" toLane="1" via=":2_6_0" dir="s" state="m"/>
    <connection from=":2_6" to="A2" fromLane="0" toLane="1" dir="s" state="M"/>
    <connection from=":2_4" to="-A6" fromLane="0" toLane="0" dir="s" state="M"/>
    <connection from=":2_5" to="-A5" fromLane="0" toLane="0" dir="s" state="M"/>
    <connection from=":4_0" to="-A9" fromLane="0" toLane="0" dir="s" state="M"/>
    <connection from=":4_1" to="-A8" fromLane="0" toLane="0" dir="s" state="M"/>
    <connection from=":4_2" to="A4" fromLane="0" toLane="1" dir="s" state="M"/>
    <connection from=":4_3" to="-A7" fromLane="0" toLane="0" dir="s" state="M"/>
    <connection from=":4_4" to="-A9" fromLane="0" toLane="0" dir="s" state="M"/>
    <connection from=":4_4" to="-A9" fromLane="1" toLane="1" dir="s" state="M"/>
    <connection from=":4_6" to="-A8" fromLane="0" toLane="0" dir="s" state="M"/>
    <connection from=":4_7" to="A4" fromLane="0" toLane="0" dir="s" state="M"/>
    <connection from=":4_8" to="-A7" fromLane="0" toLane="1" dir="s" state="M"/>
    <connection from=":4_9" to="-A9" fromLane="0" toLane="1" dir="s" state="M"/>
    <connection from=":4_10" to="-A8" fromLane="0" toLane="0" dir="s" state="M"/>
    <connection from=":4_11" to="A4" fromLane="0" toLane="0" dir="s" state="M"/>
    <connection from=":4_11" to="A4" fromLane="1" toLane="1" dir="s" state="M"/>
    <connection from=":4_13" to="-A7" fromLane="0" toLane="1" dir="s" state="M"/>

</net>
