<additional>
	<e2Detector file="e2output.xml" freq="60" friendlyPos="x" id="e2det_-A2_0" lane="-A2_0" length="490.4" pos="2.27318164292e-14"/>
	<e2Detector file="e2output.xml" freq="60" friendlyPos="x" id="e2det_-A2_1" lane="-A2_1" length="490.4" pos="2.27318164292e-14"/>
	<e2Detector file="e2output.xml" freq="60" friendlyPos="x" id="e2det_A5_0" lane="A5_0" length="391.85" pos="2.27318164292e-14"/>
	<e2Detector file="e2output.xml" freq="60" friendlyPos="x" id="e2det_A6_0" lane="A6_0" length="391.85" pos="2.27318164292e-14"/>
	<e2Detector file="e2output.xml" freq="60" friendlyPos="x" id="e2det_-A4_0" lane="-A4_0" length="737.1" pos="2.27318164292e-14"/>
	<e2Detector file="e2output.xml" freq="60" friendlyPos="x" id="e2det_-A4_1" lane="-A4_1" length="737.1" pos="2.27318164292e-14"/>
	<e2Detector file="e2output.xml" freq="60" friendlyPos="x" id="e2det_A7_0" lane="A7_0" length="491.85" pos="2.27318164292e-14"/>
	<e2Detector file="e2output.xml" freq="60" friendlyPos="x" id="e2det_A8_0" lane="A8_0" length="491.85" pos="2.27318164292e-14"/>
	<e2Detector file="e2output.xml" freq="60" friendlyPos="x" id="e2det_A9_0" lane="A9_0" length="745.15" pos="2.27318164292e-14"/>
	<e2Detector file="e2output.xml" freq="60" friendlyPos="x" id="e2det_A9_1" lane="A9_1" length="745.15" pos="2.27318164292e-14"/>
	<e2Detector file="e2output.xml" freq="60" friendlyPos="x" id="e2det_A1_0" lane="A1_0" length="491.85" pos="2.27318164292e-14"/>
	<e2Detector file="e2output.xml" freq="60" friendlyPos="x" id="e2det_A2_0" lane="A2_0" length="490.4" pos="2.27318164292e-14"/>
	<e2Detector file="e2output.xml" freq="60" friendlyPos="x" id="e2det_A2_1" lane="A2_1" length="490.4" pos="2.27318164292e-14"/>
	<e2Detector file="e2output.xml" freq="60" friendlyPos="x" id="e2det_A3_0" lane="A3_0" length="491.85" pos="2.27318164292e-14"/>
	<e2Detector file="e2output.xml" freq="60" friendlyPos="x" id="e2det_A4_0" lane="A4_0" length="737.1" pos="2.27318164292e-14"/>
	<e2Detector file="e2output.xml" freq="60" friendlyPos="x" id="e2det_A4_1" lane="A4_1" length="737.1" pos="2.27318164292e-14"/>
	
	<edgeData id="emissionEdgeData1" type="emissions" freq="60" file="edgeEmissionsOutput.xml" excludeEmpty="true"/>
</additional>
