<?xml version="1.0" encoding="UTF-8"?>

<!-- generated on 05/26/17 10:33:00 by SUMO duarouter Version 0.29.0
<?xml version="1.0" encoding="UTF-8"?>

<configuration xmlns:xsi="http://www.w3.org/2001/XMLSchema-instance" xsi:noNamespaceSchemaLocation="http://sumo.dlr.de/xsd/duarouterConfiguration.xsd">

    <input>
        <net-file value="cityNetwork.net.xml"/>
        <additional-files value="cityNetworkAdditional.add.xml"/>
        <trip-files value="cityNetwork_new.rou.xml"/>
    </input>

    <output>
        <output-file value="cityNetwork.rou.xml"/>
    </output>

    <processing>
        <ignore-errors value="true"/>
    </processing>

    <time>
        <begin value="0"/>
        <end value="36000"/>
    </time>

    <report>
        <no-warnings value="true"/>
        <no-step-log value="true"/>
    </report>

</configuration>
-->

<routes xmlns:xsi="http://www.w3.org/2001/XMLSchema-instance" xsi:noNamespaceSchemaLocation="http://sumo.dlr.de/xsd/routes_file.xsd">
    <vehicle id="0" depart="0.00">
        <route edges="237973104 243570008#0 -327779914 23222186 23222198 327779913 -16224187#4 43246588#1 -4310553#6 -4310553#3 -165934 147915073#2 13855468#0 4399600#2 187714569#0 148186648#0 -13855736#9"/>
    </vehicle>
    <vehicle id="1" depart="3.00">
        <route edges="16224187#0 23222196#0 23222184 23222183#0 23222183#1 23222183#2 23222183#3 23222198 327779913 -16224187#4 43246588#1 -4310553#6 -4310553#3 -165934 -147915073#1 -165964 -165966 43335369 191608849 -165960 43858431#0 -165956"/>
    </vehicle>
    <vehicle id="2" depart="6.00">
        <route edges="156265421#4 43285402 148608635#4 -165936 4968290#0 --165928#2 -148186648#6 -148186648#1 -187714569#8 -165926 187714560 43335374 43335375#0 43335375#1"/>
    </vehicle>
    <vehicle id="3" depart="9.00">
        <route edges="4415178#0 43858423 -165968 4415174 43335368#0 -165986 43335375#1 4399600#0 4399600#2 187714569#0 43341566#0 12689656#0 148712765#0"/>
    </vehicle>
    <vehicle id="4" depart="12.00">
        <route edges="147915073#0 147915073#2 13855468#0 4399600#2 187714569#0 43341566#0 12689656#0 211482602#0"/>
    </vehicle>
    <vehicle id="5" depart="15.00">
        <route edges="-13855736#9 -156265421#4 -156265421#3 -147915073#4 -165932 -8139879 4310553#4 43246588#3 54377173 43246588#0 43246588#1 -4310553#6"/>
    </vehicle>
    <vehicle id="6" depart="18.00">
        <route edges="-165988 191608850 147915073#0 147915073#2 156265421#0 156265421#4 43285402 -249177425#7 8003370#1"/>
    </vehicle>
    <vehicle id="7" depart="21.00">
        <route edges="-8003373 -8003372#7 -148186648#1 -187714569#8 -165926 187714560 43335374 -165970 4415177#0 4837135#0"/>
    </vehicle>
    <vehicle id="8" depart="24.00">
        <route edges="-152342551#2 147946320#0 -165988 191608850 147915073#0 147915073#2 156265421#0 156265421#4 43285402 148608635#4 -165936 4415136"/>
    </vehicle>
    <vehicle id="9" depart="27.00">
        <route edges="148186648#0 148186648#2"/>
    </vehicle>
    <vehicle id="10" depart="30.00">
        <route edges="--165928#2 -148186648#6 -148186648#1 -187714569#8 -165926 187714560 43335374 43335375#0 148186359#0 237973105 237973104 4398476#3 4398476#4 4953887 4953888#0 43246587#0"/>
    </vehicle>
    <vehicle id="11" depart="33.00">
        <route edges="38685657 -148712765#8 -12689656#3 -43341566#2 -187714569#8 -165926 187714560 43335374 43335375#0 43335375#1 4399600#0 -13855468#5"/>
    </vehicle>
    <vehicle id="12" depart="36.00">
        <route edges="-165932 -8139879"/>
    </vehicle>
    <vehicle id="13" depart="39.00">
        <route edges="156265421#0 156265421#4 43285402 148608635#4 -165936 4968290#0 -165920 166170572#0"/>
    </vehicle>
    <vehicle id="14" depart="42.00">
        <route edges="4415177#1 -165988 191608850 147915073#0 147915073#2 13855468#0 4399600#2 187714569#0 148186648#0 148186648#2 -165928#0 -165920"/>
    </vehicle>
    <vehicle id="15" depart="45.00">
        <route edges="4950603#2 --165936 -148608635#6 -148608635#3 15543302#0 4953885#0 4953884 -43246587#6 -4953888#1 4953886 237973107#0 107970295 237973107#3"/>
    </vehicle>
    <vehicle id="17" depart="51.00">
        <route edges="43246587#0 -43285401#1 -4953885#2 -15543302#8 43285402 -249177425#7"/>
    </vehicle>
    <vehicle id="18" depart="54.00">
        <route edges="147915073#0 147915073#2 13855468#0 4399600#2 187714569#0 43341566#0 12689656#0"/>
    </vehicle>
    <vehicle id="19" depart="57.00">
        <route edges="148186359#0 237973105 237973104 243570008#0 -327779914 23222186 23222183#4 23222183#0 23222183#1 23222183#2 8003381"/>
    </vehicle>
    <vehicle id="20" depart="60.00">
        <route edges="-165928#0 -4968289#4 --165936 -148608635#6 -148608635#3 -156265421#4 -156265421#3 -147915073#4 -165932 -8139879 4310553#4 43246588#3 54377173 43246588#0 16224187#0 23222196#0 23222184 23222183#0 23222183#1 23222183#2 23222183#3 23222198 327779913 -16224187#4"/>
    </vehicle>
    <vehicle id="22" depart="66.00">
        <route edges="-4310553#3 -165934 -147915073#1 -165964 -165966 43335369 191608849 -165960 43858431#0 -165956"/>
    </vehicle>
    <vehicle id="23" depart="69.00">
        <route edges="4415136 4415135 -8003370#1 249177425#4 -148608635#3 -156265421#4 -156265421#3 -147915073#4 -165932 -8139879 4310553#4"/>
    </vehicle>
    <vehicle id="24" depart="72.00">
        <route edges="4398476#2 4398476#3 4398476#4 4953887 4953888#0"/>
    </vehicle>
    <vehicle id="25" depart="75.00">
        <route edges="-152342551#2 147946320#0 -165988 191608850 147915073#0 -165932"/>
    </vehicle>
    <vehicle id="26" depart="78.00">
        <route edges="-15092428#1 -148608635#3 -156265421#4 -156265421#3 -147915073#4 -165932 -8139879 4310553#4 43246588#3 54377173 43246588#0 16224187#0 39970196 -43285401#1"/>
    </vehicle>
    <vehicle id="27" depart="81.00">
        <route edges="12689656#0 148712765#0"/>
    </vehicle>
    <vehicle id="28" depart="84.00">
        <route edges="-147915073#1 -165964 -165966 43335369 43335368#0 -165986 43335375#1 4399600#0 4399600#2 187714569#0 148186648#0 -13855736#9 -156265421#4 -156265421#3"/>
    </vehicle>
    <vehicle id="29" depart="87.00">
        <route edges="-187714569#8 -165926 187714560 43335374 43335375#0 43335375#1 4399600#0 -13855468#5 -147915073#4 -165932 -8139879 4310553#4 43246588#3 54377173 43246588#0 16224187#0 23222196#0 23222184 23222183#0 23222183#1 23222183#2 8003381 327779914"/>
    </vehicle>
    <vehicle id="31" depart="93.00">
        <route edges="43285402 148608635#4 -165936 4968290#0 --165928#2 -148186648#6 -13855736#9 -156265421#4 -156265421#3 -147915073#4 -165932 -8139879 15092433#0 -15543302#8"/>
    </vehicle>
    <vehicle id="32" depart="96.00">
        <route edges="43246587#0 8003382#0 -16224187#4 43246588#1 -4310553#6 -4310553#3 -165934 -147915073#1 -165964 -165966 43335369 43335368#0 -165986 43335375#1 148186651"/>
    </vehicle>
    <vehicle id="33" depart="99.00">
        <route edges="4953885#0 4953884 8003382#0 -16224187#4 43246588#1 -4310553#6 -4310553#3 -165934 -147915073#1 -165964 -165966 43335369 43335368#0 -165986 43335375#1 148186651 43335374 -165970 4415177#0 4415177#1"/>
    </vehicle>
    <vehicle id="34" depart="102.00">
        <route edges="-165928#0 -4968289#4 --165936 -148608635#6 -148608635#3 -156265421#4 -156265421#3 -147915073#4 -165932 -8139879"/>
    </vehicle>
    <vehicle id="35" depart="105.00">
        <route edges="-15543302#8 -156265421#4 -156265421#3 -147915073#4 -165932 -8139879 4310553#4 43246588#3 54377173 43246588#0 16224187#0 39970196 -43285401#1"/>
    </vehicle>
    <vehicle id="36" depart="108.00">
        <route edges="-165964 -165966 43335369 43335368#0 -165986 43335375#1 4399600#0 4399600#2 187714569#0 43341566#0 -8003373 -8003372#7 -148186648#1"/>
    </vehicle>
    <vehicle id="37" depart="111.00">
        <route edges="43246588#0 16224187#0 23222196#0 23222184 23222183#0 23222183#1 23222183#2 23222183#3 23222198"/>
    </vehicle>
    <vehicle id="39" depart="117.00">
        <route edges="-147915073#1 -165964 -165966 43335369 43335368#0 -165986 43335375#1 4399600#0 4399600#2 187714569#0"/>
    </vehicle>
    <vehicle id="40" depart="120.00">
        <route edges="-43285401#1 -4953885#2 -189049904#4 4310553#4 43246588#3 54377173 43246588#0 43246588#1 -4310553#6 15092433#0 4953885#0 4953884"/>
    </vehicle>
    <vehicle id="41" depart="123.00">
        <route edges="4415136 4415135 -8003370#1 249177425#4 -148608635#3 15543302#0 4953885#0 4953884 -43246587#6 -4953888#1 4953886 4398476#2 4398476#3 4398476#4 4953887 4953888#0 43246587#0"/>
    </vehicle>
    <vehicle id="42" depart="126.00">
        <route edges="4398476#4 4398476#1 4398476#2 243570008#0 -327779914 23222186 23222198 327779913 -16224187#4 43246588#1 -4310553#6 -4310553#3 -165934 147915073#2 13855468#0"/>
    </vehicle>
    <vehicle id="43" depart="129.00">
        <route edges="-148712765#8"/>
    </vehicle>
    <vehicle id="44" depart="132.00">
        <route edges="23222183#0 23222183#1 23222183#2 23222183#3 23222198 327779913 -16224187#4 43246588#1 43246588#3"/>
    </vehicle>
    <vehicle id="45" depart="135.00">
        <route edges="187714569#0 148186648#0 -13855736#9 -156265421#4 -156265421#3 -147915073#4 -147915073#1 -165964 -165966 43335369"/>
    </vehicle>
    <vehicle id="47" depart="141.00">
        <route edges="54377173 43246588#0 43246588#1 -4310553#6 -4310553#3 -165934 -147915073#1 -165964 -165966 43335369 43335368#0 -165986 43335375#1 148186651"/>
    </vehicle>
    <vehicle id="49" depart="147.00">
        <route edges="249177425#4 148608635#4 -165936 4968290#0 --165928#2 -148186648#6 -13855736#9 43285402"/>
    </vehicle>
    <vehicle id="50" depart="150.00">
        <route edges="148186648#0 148186648#2 -165928#0 -4968289#4 --165936"/>
    </vehicle>
    <vehicle id="51" depart="153.00">
        <route edges="4953887 4953888#0 43246587#0 8003382#0 -16224187#4 43246588#1 -4310553#6 -4310553#3 -165934 -147915073#1 -165964 -165966 43335369 191608849 -165960 43858431#0 -165956"/>
    </vehicle>
    <vehicle id="52" depart="156.00">
        <route edges="-4953885#2 -15543302#8 43285402 -249177425#7 8003370#1"/>
    </vehicle>
    <vehicle id="53" depart="159.00">
        <route edges="-148186648#6 -13855736#9 15543302#0"/>
    </vehicle>
    <vehicle id="54" depart="162.00">
        <route edges="8003382#0 23222196#0 23222184 23222183#0 23222183#1 23222183#2 23222183#3 23222198 327779913 39970196 -43246587#6 -4953888#1 4953886 4398476#2 4398476#3 4398476#4"/>
    </vehicle>
    <vehicle id="55" depart="165.00">
        <route edges="-4415136 --165936 -148608635#6 -148608635#3 -156265421#4 -156265421#3 -147915073#4 -147915073#1 -165964 -165966 43335369 191608849 -165960 43858421"/>
    </vehicle>
    <vehicle id="56" depart="168.00">
        <route edges="-43341566#2 148186648#0 148186648#2 -165928#0 -4968289#4 4415136 4415135"/>
    </vehicle>
    <vehicle id="57" depart="171.00">
        <route edges="-8139879 4310553#4 43246588#3 54377173 43246588#0 16224187#0 39970196 -43246587#6 -4953888#1 4953886 237973107#0 107970295 237973107#3"/>
    </vehicle>
    <vehicle id="58" depart="174.00">
        <route edges="-148712765#8 -12689656#3 -43341566#2 -187714569#8 -165926 187714560 43335374 43335375#0 43335375#1 4399600#0 -13855468#5 -147915073#4 -165932 -8139879 4310553#4 43246588#3 54377173 43246588#0 16224187#0 39970196"/>
    </vehicle>
    <vehicle id="59" depart="177.00">
        <route edges="327779913 39970196 -43246587#6 -4953888#1 4953886 4398476#2 4398476#3 4398476#4 4398476#1"/>
    </vehicle>
    <vehicle id="60" depart="180.00">
        <route edges="-13855468#5 -147915073#4 -165932 -8139879 4310553#4 43246588#3 54377173 43246588#0 16224187#0 39970196 -43246587#6 -4953888#1 4953886 4398476#2 243570008#0 -327779914"/>
    </vehicle>
    <vehicle id="61" depart="183.00">
        <route edges="15543302#0 -189049904#4 -4310553#3 -165934 -147915073#1 -165964 -165966 43335369 43335368#0 -165986 148186359#0 237973105"/>
    </vehicle>
    <vehicle id="62" depart="186.00">
        <route edges="43246588#1 43246588#3 54377173 43246588#0 16224187#0 39970196 -43246587#6 -4953888#1 4953886 237973107#0 23646350 94197110#0"/>
    </vehicle>
    <vehicle id="63" depart="189.00">
        <route edges="187714560 43335374 -165970"/>
    </vehicle>
    <vehicle id="64" depart="192.00">
        <route edges="23646350 94197107 237973107#3 237973106#0 4399600#0 -13855468#5 -147915073#4 -147915073#1 -165964 -165966"/>
    </vehicle>
    <vehicle id="65" depart="195.00">
        <route edges="4953885#0 4953884 -43246587#6 -4953888#1 4953886 237973107#0 107970295 237973107#3 237973106#0"/>
    </vehicle>
    <vehicle id="66" depart="198.00">
        <route edges="150785474#0 191608853 189645486 43335368#0 -165986 43335375#1 4399600#0 4399600#2 187714569#0 148186648#0 148186648#2 -165928#0"/>
    </vehicle>
    <vehicle id="67" depart="201.00">
        <route edges="43858423 -165968 4415174 43335368#0 -165986 43335375#1 148186651 43335374 -165970 4415177#0 4415177#1 -165988 191608849 -165960 43858421 15092435#0"/>
    </vehicle>
    <vehicle id="68" depart="204.00">
        <route edges="23222196#0 23222184 23222183#0 23222183#1 23222183#2 23222183#3 23222198 327779913 -16224187#4 43246588#1 -4310553#6 15092433#0 4953885#0"/>
    </vehicle>
    <vehicle id="69" depart="207.00">
        <route edges="23222196#0 23222184 23222183#0 23222183#1 23222183#2 23222183#3 23222198 327779913 39970196 -43285401#1 -4953885#2 -189049904#4 4310553#4"/>
    </vehicle>
    <vehicle id="70" depart="210.00">
        <route edges="-147915073#4 -165932 -8139879 4310553#4 43246588#3 54377173 43246588#0 16224187#0 23222196#0 23222184 23222183#0 23222183#1 23222183#2 23222183#3 23222183#4"/>
    </vehicle>
    <vehicle id="72" depart="216.00">
        <route edges="23222183#4 23222183#0 23222183#1 23222183#2 23222183#3 23222198 327779913 -16224187#4 43246588#1 -4310553#6 -4310553#3 -165934 -147915073#1 -165964 -165966 43335369 43335368#0 -165986 43335375#1 148186651 38685657 -148712765#8 -12689656#3"/>
    </vehicle>
    <vehicle id="73" depart="219.00">
        <route edges="-4497579#1 -156265421#3 13855468#0 4399600#2 187714569#0 148186648#0 148186648#2 -165928#0"/>
    </vehicle>
    <vehicle id="74" depart="222.00">
        <route edges="165236557#3 191412824 -166006 -4415136 4968290#0 --165928#2 -148186648#6 -148186648#1 -187714569#8 -165926 187714560 43335374 -165970"/>
    </vehicle>
    <vehicle id="75" depart="225.00">
        <route edges="23217665 41774572 43246588#0 16224187#0 39970196 -43246587#6 -4953888#1 4953886 237973107#0 237973107#2"/>
    </vehicle>
    <vehicle id="76" depart="228.00">
        <route edges="4415174 43335368#0 -165986 43335375#1 4399600#0 4399600#2 187714569#0 43341566#0"/>
    </vehicle>
    <vehicle id="77" depart="231.00">
        <route edges="-166006 -4415136 --165936 -148608635#6 -148608635#3"/>
    </vehicle>
    <vehicle id="78" depart="234.00">
        <route edges="15092433#0 -15543302#8 -156265421#4 -156265421#3 -147915073#4 -165932 -8139879 4310553#4"/>
    </vehicle>
    <vehicle id="79" depart="237.00">
        <route edges="43335375#1 4399600#0 -13855468#5 -147915073#4 -165932 -8139879 4310553#4 43246588#3 54377173 43246588#0 16224187#0 23222196#0 23222184 23222183#0 23222183#1"/>
    </vehicle>
    <vehicle id="81" depart="243.00">
        <route edges="--165928#2 -148186648#6 -148186648#1 43341566#0 -8003373 -8003372#7 148186648#2 -165928#0 -165920"/>
    </vehicle>
    <vehicle id="83" depart="249.00">
        <route edges="-165986 43335375#1 4399600#0 -13855468#5 -147915073#4"/>
    </vehicle>
    <vehicle id="84" depart="252.00">
        <route edges="4953888#0 43246587#0"/>
    </vehicle>
    <vehicle id="86" depart="258.00">
        <route edges="43335375#0 43335375#1 4399600#0 4399600#2 187714569#0 148186648#0 8003372#0 8003373"/>
    </vehicle>
    <vehicle id="87" depart="261.00">
        <route edges="4399600#2 187714569#0 148186648#0 8003372#0 8003373 -43341566#2"/>
    </vehicle>
    <vehicle id="88" depart="264.00">
        <route edges="23222183#2 23222183#3 23222198 327779913 -16224187#4 43246588#1 43246588#3 54377173 43246588#0 16224187#0"/>
    </vehicle>
    <vehicle id="89" depart="267.00">
        <route edges="54377173 43246588#0 43246588#1 -4310553#6 -4310553#3 -165934 -147915073#1 -165964 -165966 43335369 43335368#0 -165986 43335375#1 148186651 38685657 -148712765#8 -12689656#3"/>
    </vehicle>
    <vehicle id="90" depart="270.00">
        <route edges="4953888#0 43246587#0 8003382#0 23222196#0 23222184 23222183#0 23222183#1 23222183#2 23222183#3 23222198 327779913 39970196 -43246587#6 -4953888#1 4953886 237973107#0 23646350"/>
    </vehicle>
    <vehicle id="91" depart="273.00">
        <route edges="-165936 4968290#0 -165920 166170572#0 4399597"/>
    </vehicle>
    <vehicle id="93" depart="279.00">
        <route edges="-8139879 15092433#0 -15543302#8 13855736#0 -148186648#1 -187714569#8 -165926 187714560"/>
    </vehicle>
    <vehicle id="94" depart="282.00">
        <route edges="4399600#2 187714569#0 148186648#0 148186648#2 -165928#0 -4968289#4 4415136"/>
    </vehicle>
    <vehicle id="95" depart="285.00">
        <route edges="-211482602#2 148712765#0 38685674 43335375#0 43335375#1 4399600#0 -13855468#5 -147915073#4 -165932 -8139879 4310553#4 43246588#3 54377173 43246588#0 16224187#0 39970196 -43246587#6"/>
    </vehicle>
    <vehicle id="96" depart="288.00">
        <route edges="-13855468#5 -147915073#4 -147915073#1 -165964 -165966 43335369"/>
    </vehicle>
    <vehicle id="98" depart="294.00">
        <route edges="4398476#2 243570008#0 -327779914 23222186 23222198 327779913 -16224187#4 43246588#1 -4310553#6 -4310553#3 -165934 147915073#2 156265421#0 156265421#4 43285402 148608635#4 -165936"/>
    </vehicle>
    <vehicle id="99" depart="297.00">
        <route edges="327779917#0 23222183#2 23222183#3 23222198 327779913 -16224187#4 43246588#1 -4310553#6 -4310553#3 -165934 -147915073#1 -165964 -165966 43335369 43335368#0 -165986 43335375#1 148186651 43335374 -165970 4415177#0 4415177#1 -165988 191608850 147915073#0"/>
    </vehicle>
    <vehicle id="100" depart="300.00">
        <route edges="4415177#0 4415177#1 -165988 191608850 147915073#0 147915073#2 13855468#0 4399600#2 187714569#0 148186648#0 -13855736#9 -156265421#4 -156265421#3"/>
    </vehicle>
    <vehicle id="101" depart="303.00">
        <route edges="-165936 4968290#0 -165920 166170572#0"/>
    </vehicle>
    <vehicle id="102" depart="306.00">
        <route edges="43335375#0 43335375#1 4399600#0 -13855468#5 -147915073#4 -165932 -8139879 4310553#4 43246588#3 54377173 43246588#0 16224187#0 23222196#0 23222184"/>
    </vehicle>
    <vehicle id="103" depart="309.00">
        <route edges="4953884 8003382#0 -16224187#4 43246588#1 -4310553#6 -4310553#3 -165934"/>
    </vehicle>
    <vehicle id="104" depart="312.00">
        <route edges="4953885#0 4953884 8003382#0 23222196#0 23222184 23222183#0 23222183#1"/>
    </vehicle>
    <vehicle id="106" depart="318.00">
        <route edges="23222183#0 23222183#1 23222183#2 23222183#3 23222198 327779913 -16224187#4 43246588#1 -4310553#6 -4310553#3 -165934 -147915073#1 -165964 -165966 43335369 43335368#0 -165986 148186359#0"/>
    </vehicle>
    <vehicle id="107" depart="321.00">
        <route edges="4398476#2 243570008#0 -327779914 23222186 23222198 327779913 -16224187#4 43246588#1 -4310553#6 -4310553#3 -165934 147915073#2 156265421#0 156265421#4 15543302#0"/>
    </vehicle>
    <vehicle id="108" depart="324.00">
        <route edges="191608853 189645486 43335368#0 -165986 148186359#0 237973105 237973104"/>
    </vehicle>
    <vehicle id="109" depart="327.00">
        <route edges="23222198 327779913 -16224187#4 43246588#1 -4310553#6 -4310553#3 -165934 147915073#2 13855468#0 4399600#2 187714569#0"/>
    </vehicle>
    <vehicle id="110" depart="330.00">
        <route edges="-8003372#7 -13855736#9 -156265421#4 -156265421#3 -147915073#4 -147915073#1"/>
    </vehicle>
    <vehicle id="111" depart="333.00">
        <route edges="150785474#0 191608853 189645486 191608850 147915073#0 147915073#2 13855468#0"/>
    </vehicle>
    <vehicle id="113" depart="339.00">
        <route edges="-211482602#2 148712765#0 38685674 43335375#0 43335375#1 4399600#0 4399600#2 187714569#0 148186648#0 148186648#2 -165928#0"/>
    </vehicle>
    <vehicle id="114" depart="342.00">
        <route edges="243570008#0 -327779914 23222186 23222198 327779913 -16224187#4 43246588#1 -4310553#6 -4310553#3 -165934 147915073#2 156265421#0 156265421#4 43285402 148608635#4 -165936 4415136 4415135 188339303#0"/>
    </vehicle>
    <vehicle id="115" depart="345.00">
        <route edges="-147915073#4 -147915073#1 -165964 -165966 43335369 43335368#0 -165986 43335375#1 148186651 38685657 -148712765#8"/>
    </vehicle>
    <vehicle id="116" depart="348.00">
        <route edges="4950603#2 4968290#0 --165928#2 -148186648#6 -148186648#1"/>
    </vehicle>
    <vehicle id="117" depart="351.00">
        <route edges="38685674 43335375#0 43335375#1 148186651 38685657 -148712765#8 -12689656#3"/>
    </vehicle>
    <vehicle id="118" depart="354.00">
        <route edges="-8003372#7 -13855736#9 -156265421#4 -156265421#3 -147915073#4 -165932 -8139879 4310553#4 43246588#3 54377173 43246588#0 16224187#0 39970196"/>
    </vehicle>
    <vehicle id="122" depart="366.00">
        <route edges="-4310553#6 15092433#0 -15543302#8 13855736#0 -148186648#1"/>
    </vehicle>
    <vehicle id="123" depart="369.00">
        <route edges="-94197110#1 94197107 237973107#3 237973106#0 148186651 43335374 -165970 4415177#0 4415177#1 -165988 191608849 -165960 43858431#0 -165956"/>
    </vehicle>
    <vehicle id="124" depart="372.00">
        <route edges="-148608635#6 -148608635#3 15543302#0 -189049904#4"/>
    </vehicle>
    <vehicle id="125" depart="375.00">
        <route edges="148186359#0 237973105 237973104 243570008#0 -327779914 23222186 23222198 327779913 -16224187#4 43246588#1 43246588#3 54377173 43246588#0 16224187#0"/>
    </vehicle>
    <vehicle id="126" depart="378.00">
        <route edges="237973105 237973104 243570008#0 -327779914 23222186 23222198 327779913 -16224187#4 43246588#1 -4310553#6 -4310553#3 -165934 147915073#2 156265421#0 156265421#4 43285402 148608635#4 -165936 4415136 4415135 -8003370#1 249177425#4"/>
    </vehicle>
    <vehicle id="127" depart="381.00">
        <route edges="4953887 4953888#0 43246587#0 8003382#0 23222196#0 23222184 23222183#0 23222183#1 23222183#2 23222183#3 23222198 327779913 39970196 -43246587#6 -4953888#1 4953886 237973107#0 23646350"/>
    </vehicle>
    <vehicle id="128" depart="384.00">
        <route edges="4950603#2 --165936 -148608635#6 -148608635#3 15543302#0 4953885#0 4953884 -43246587#6 -4953888#1 4953886 4398476#2 4398476#3 4398476#4 4953887"/>
    </vehicle>
    <vehicle id="129" depart="387.00">
        <route edges="8003382#0 -16224187#4 43246588#1 -4310553#6 -4310553#3 -165934 147915073#2 156265421#0 156265421#4 43285402 148608635#4 -165936 4415136 4415135"/>
    </vehicle>
    <vehicle id="131" depart="393.00">
        <route edges="4415177#1 -165988 191608849 -165960"/>
    </vehicle>
    <vehicle id="132" depart="396.00">
        <route edges="150785474#0 191608853 189645486 43335368#0 -165986 43335375#1 4399600#0 4399600#2 187714569#0 148186648#0 8003372#0 8003373"/>
    </vehicle>
    <vehicle id="133" depart="399.00">
        <route edges="-4310553#6 15092433#0 -15543302#8"/>
    </vehicle>
    <vehicle id="134" depart="402.00">
        <route edges="4398476#4 4398476#1 237973107#0 23646350"/>
    </vehicle>
    <vehicle id="135" depart="405.00">
        <route edges="15092433#0 4953885#0 4953884 8003382#0 -16224187#4 43246588#1 43246588#3"/>
    </vehicle>
    <vehicle id="136" depart="408.00">
        <route edges="243570008#0 -327779914 23222186 23222198 327779913 -16224187#4 43246588#1 -4310553#6 -4310553#3 -165934 -147915073#1 -165964 -165966 43335369 43335368#0 -165986 43335375#1 148186651 38685657 -148712765#8 211482602#0"/>
    </vehicle>
    <vehicle id="137" depart="411.00">
        <route edges="94197107 237973107#3 237973106#0 4399600#0 4399600#2 187714569#0 148186648#0 -13855736#9 -156265421#4 -156265421#3"/>
    </vehicle>
    <vehicle id="138" depart="414.00">
        <route edges="94197107 237973107#3 237973106#0 4399600#0 -13855468#5 -147915073#4 -165932 -8139879 15092433#0 -15543302#8"/>
    </vehicle>
    <vehicle id="139" depart="417.00">
        <route edges="43335375#1 148186651 38685657 -148712765#8 -12689656#3 -43341566#2"/>
    </vehicle>
    <vehicle id="140" depart="420.00">
        <route edges="-16224187#4 43246588#1 -4310553#6 -4310553#3 -165934 147915073#2 156265421#0 156265421#4 43285402 -249177425#7"/>
    </vehicle>
    <vehicle id="142" depart="426.00">
        <route edges="-165928#0 -4968289#4 --165936 -148608635#6 -148608635#3 -156265421#4 -156265421#3 -147915073#4 -147915073#1 -165964 -165966 43335369 191608849 -165960 43858431#0 -165956"/>
    </vehicle>
    <vehicle id="143" depart="429.00">
        <route edges="191608853 189645486 43335368#0 -165986 43335375#1 4399600#0 4399600#2 187714569#0 43341566#0 -8003373 -8003372#7"/>
    </vehicle>
    <vehicle id="144" depart="432.00">
        <route edges="165236557#3 191412824 -166006 -4415136 --165936 -148608635#6 -148608635#3 -156265421#4 -156265421#3 -147915073#4 -147915073#1"/>
    </vehicle>
    <vehicle id="145" depart="435.00">
        <route edges="165236557#3 191412824 -166006 -4415136 4968290#0 --165928#2 -148186648#6 -148186648#1 43341566#0 -8003373"/>
    </vehicle>
    <vehicle id="146" depart="438.00">
        <route edges="--165920 --165928#2 -148186648#6 -148186648#1 -187714569#8 -165926 187714560"/>
    </vehicle>
    <vehicle id="147" depart="441.00">
        <route edges="-165928#0 -4968289#4 --165936 -148608635#6 -148608635#3 -156265421#4 -156265421#3 13855468#0 4399600#2 187714569#0 148186648#0 8003372#0"/>
    </vehicle>
    <vehicle id="148" depart="444.00">
        <route edges="187714560 43335374 43335375#0 43335375#1 4399600#0 -13855468#5 156265421#0 156265421#4 43285402 148608635#4 -165936 4415136 4415135 -8003370#1 249177425#4"/>
    </vehicle>
    <vehicle id="149" depart="447.00">
        <route edges="148186651 43335374 43335375#0 43335375#1 4399600#0 4399600#2 187714569#0 43341566#0 12689656#0 148712765#0"/>
    </vehicle>
    <vehicle id="150" depart="450.00">
        <route edges="38685674 43335375#0 43335375#1 4399600#0 4399600#2 187714569#0 148186648#0 148186648#2 -165928#0 -165920"/>
    </vehicle>
    <vehicle id="151" depart="453.00">
        <route edges="-8139879 15092433#0 -15543302#8"/>
    </vehicle>
    <vehicle id="152" depart="456.00">
        <route edges="327779913 39970196 -43285401#1 -4953885#2 -189049904#4 4310553#4"/>
    </vehicle>
    <vehicle id="153" depart="459.00">
        <route edges="189645486 191608850 147915073#0 -165932 -8139879 15092433#0 4953885#0 4953884"/>
    </vehicle>
    <vehicle id="154" depart="462.00">
        <route edges="107970295 237973107#3 237973106#0 148186651 43335374 43335375#0 148186359#0 237973105"/>
    </vehicle>
    <vehicle id="155" depart="465.00">
        <route edges="43335369 43335368#0 -165986 43335375#1 4399600#0 4399600#2 187714569#0 148186648#0 148186648#2 -165928#0 -4968289#4"/>
    </vehicle>
    <vehicle id="156" depart="468.00">
        <route edges="156265421#0 156265421#4 43285402 148608635#4 -165936 4968290#0 --165928#2 -148186648#6 -148186648#1 43341566#0 -8003373 -8003372#7 148186648#2 -165928#0 -4968289#4"/>
    </vehicle>
    <vehicle id="157" depart="471.00">
        <route edges="-166170572#3 --165920 --165928#2 -148186648#6 -13855736#9 -156265421#4 -156265421#3 -147915073#4 -165932 -8139879 4310553#4 43246588#3 23217665"/>
    </vehicle>
    <vehicle id="158" depart="474.00">
        <route edges="-4953888#1 4953886 4398476#2 243570008#0 -327779914 23222186 23222198 327779913 -16224187#4 43246588#1 43246588#3 54377173"/>
    </vehicle>
    <vehicle id="159" depart="477.00">
        <route edges="-156265421#3 -147915073#4 -147915073#1 -165964 -165966 43335369 191608849 -165960 43858421"/>
    </vehicle>
    <vehicle id="160" depart="480.00">
        <route edges="-15092428#1 -148608635#3 -156265421#4 -156265421#3 -147915073#4 -147915073#1 -165964 -165966 43335369 43335368#0 -165986 43335375#1 148186651"/>
    </vehicle>
    <vehicle id="162" depart="486.00">
        <route edges="4415136 4415135 -8003370#1 249177425#4 -148608635#3 15543302#0 4953885#0 4953884 -43246587#6 -4953888#1 4953886 237973107#0 107970295 237973107#3 237973106#0"/>
    </vehicle>
    <vehicle id="163" depart="489.00">
        <route edges="4950603#2 --165936 -148608635#6 -148608635#3 -156265421#4 -156265421#3 -147915073#4 -147915073#1 -165964"/>
    </vehicle>
    <vehicle id="164" depart="492.00">
        <route edges="249177425#4 -148608635#3 -156265421#4 -156265421#3 -147915073#4 -165932 -8139879 4310553#4 43246588#3 54377173 43246588#0 16224187#0 23222196#0 23222184 23222183#0 23222183#1 23222183#2 23222183#3"/>
    </vehicle>
    <vehicle id="165" depart="495.00">
        <route edges="-43285401#1 -4953885#2 -189049904#4 4310553#4 43246588#3 54377173 43246588#0 16224187#0 39970196 -43246587#6 -4953888#1 4953886 4398476#2 4398476#3 4398476#4 4398476#1"/>
    </vehicle>
    <vehicle id="166" depart="498.00">
        <route edges="-165928#0 -4968289#4 --165936 -148608635#6 -148608635#3 -156265421#4 -156265421#3 13855468#0 4399600#2 187714569#0 148186648#0 8003372#0"/>
    </vehicle>
    <vehicle id="167" depart="501.00">
        <route edges="4950603#2 --165936 -148608635#6 -148608635#3 -156265421#4 -156265421#3 -147915073#4 -165932 -8139879 4310553#4 43246588#3 54377173 43246588#0 16224187#0 23222196#0 23222184 23222183#0 23222183#1 23222183#2 23222183#3 23222198 327779913 -16224187#4"/>
    </vehicle>