<?xml version="1.0" encoding="UTF-8"?>
<!-- generated on 2018-09-27 15:53:13.734304 by $Id$ via randomTrips.py
  options: 
-->
<routes xmlns:xsi="http://www.w3.org/2001/XMLSchema-instance" xsi:noNamespaceSchemaLocation="http://sumo.dlr.de/xsd/routes_file.xsd">
    <vType id="passenger" speedFactor="normc(1.00,0.10,0.20,2.00)" vClass="passenger">
    </vType>
    <trip id="veh0" depart="0.00" departLane="best" from="25594977#0" to="-15693581#0" type="passenger"/>
    <trip id="veh1" depart="1.03" departLane="best" from="-404014015#7" to="-38809707#1" type="passenger"/>
    <trip id="veh2" depart="2.06" departLane="best" from="36775550#4" to="30097638" type="passenger"/>
    <trip id="veh3" depart="3.09" departLane="best" from="55697657#1" to="-23167685#0" type="passenger"/>
    <trip id="veh4" depart="4.12" departLane="best" from="-77103500" to="-16295338#12" type="passenger"/>
    <trip id="veh5" depart="5.15" departLane="best" from="-30583367" to="19831097" type="passenger"/>
    <trip id="veh6" depart="6.17" departLane="best" from="-15693515#2" to="-3127736#1" type="passenger"/>
    <trip id="veh7" depart="7.20" departLane="best" from="26294019#0" to="232718096#0" type="passenger"/>
    <trip id="veh8" depart="8.23" departLane="best" from="-30691386" to="24936216#0" type="passenger"/>
    <trip id="veh9" depart="9.26" departLane="best" from="4340906#3" to="-120324572" type="passenger"/>
    <trip id="veh10" depart="10.29" departLane="best" from="4332859#2" to="311561500#2" type="passenger"/>
    <trip id="veh11" depart="11.32" departLane="best" from="-4711429#1" to="-26785612#0" type="passenger"/>
    <trip id="veh12" depart="12.35" departLane="best" from="7744552" to="-564115139" type="passenger"/>
    <trip id="veh13" depart="13.38" departLane="best" from="-23163539" to="-237559987#1" type="passenger"/>
    <trip id="veh14" depart="14.41" departLane="best" from="48379506#1" to="253352352#0" type="passenger"/>
    <trip id="veh15" depart="15.44" departLane="best" from="19742815" to="8256233#2" type="passenger"/>
    <trip id="veh16" depart="16.47" departLane="best" from="-55697656" to="235757577" type="passenger"/>
    <trip id="veh17" depart="17.49" departLane="best" from="4536595#1" to="26072428#0" type="passenger"/>
    <trip id="veh18" depart="18.52" departLane="best" from="49932190#0" to="24442742#1" type="passenger"/>
    <trip id="veh19" depart="19.55" departLane="best" from="30686960#2" to="-17691735#4" type="passenger"/>
    <trip id="veh20" depart="20.58" departLane="best" from="-31324122#1" to="-4680844#1" type="passenger"/>
    <trip id="veh21" depart="21.61" departLane="best" from="-207807963#3" to="-404097028#0" type="passenger"/>
    <trip id="veh22" depart="22.64" departLane="best" from="-235757577" to="-4370466#3" type="passenger"/>
    <trip id="veh24" depart="24.70" departLane="best" from="-534024689#2" to="-34293999" type="passenger"/>
    <trip id="veh25" depart="25.73" departLane="best" from="-38893516" to="623074134#1" type="passenger"/>
    <trip id="veh26" depart="26.76" departLane="best" from="26292721#6" to="25359277" type="passenger"/>
    <trip id="veh27" depart="27.79" departLane="best" from="-26785810#0" to="355162536#0" type="passenger"/>
    <trip id="veh28" depart="28.82" departLane="best" from="-26709645#4" to="-7742056#0" type="passenger"/>
    <trip id="veh29" depart="29.84" departLane="best" from="217313923#1" to="30199824#1" type="passenger"/>
    <trip id="veh30" depart="30.87" departLane="best" from="4711430#3" to="41518095#2" type="passenger"/>
    <trip id="veh31" depart="31.90" departLane="best" from="-313583263#1" to="-16296979#0" type="passenger"/>
    <trip id="veh32" depart="32.93" departLane="best" from="-4340913" to="-4332942#1" type="passenger"/>
    <trip id="veh33" depart="33.96" departLane="best" from="-30198798" to="6578208" type="passenger"/>
    <trip id="veh34" depart="34.99" departLane="best" from="26709645#1" to="-82123817" type="passenger"/>
    <trip id="veh35" depart="36.02" departLane="best" from="602799890#5" to="16292271#2" type="passenger"/>
    <trip id="veh37" depart="38.08" departLane="best" from="225465142#0" to="-4264243#3" type="passenger"/>
    <trip id="veh38" depart="39.11" departLane="best" from="236678750#2" to="538314349#2" type="passenger"/>
    <trip id="veh39" depart="40.14" departLane="best" from="-602799891#9" to="-38060075" type="passenger"/>
    <trip id="veh40" depart="41.16" departLane="best" from="99961287#7" to="201756812#11" type="passenger"/>
    <trip id="veh41" depart="42.19" departLane="best" from="-2415184#2" to="26374216#0" type="passenger"/>
    <trip id="veh42" depart="43.22" departLane="best" from="4257237" to="104240604" type="passenger"/>
    <trip id="veh43" depart="44.25" departLane="best" from="-19209655#0" to="-7742060#0" type="passenger"/>
    <trip id="veh44" depart="45.28" departLane="best" from="9894931#2" to="224188581#1" type="passenger"/>
    <trip id="veh45" depart="46.31" departLane="best" from="8253981#0" to="4884668#2" type="passenger"/>
    <trip id="veh46" depart="47.34" departLane="best" from="-129375498#4" to="332219168#0" type="passenger"/>
    <trip id="veh47" depart="48.37" departLane="best" from="27373437" to="230843110#3" type="passenger"/>
    <trip id="veh48" depart="49.40" departLane="best" from="-38893516" to="26800223#0" type="passenger"/>
    <trip id="veh49" depart="50.43" departLane="best" from="-2418095#1" to="129375498#2" type="passenger"/>
    <trip id="veh50" depart="51.46" departLane="best" from="-9894929" to="76590370#2" type="passenger"/>
    <trip id="veh51" depart="52.48" departLane="best" from="53372461#0" to="-4264944#1" type="passenger"/>
    <trip id="veh52" depart="53.51" departLane="best" from="166364278#0" to="-27577234#2" type="passenger"/>
    <trip id="veh53" depart="54.54" departLane="best" from="6010091" to="4977045#1" type="passenger"/>
    <trip id="veh54" depart="55.57" departLane="best" from="-4257255#0" to="26785810#1" type="passenger"/>
    <trip id="veh55" depart="56.60" departLane="best" from="2466940#3" to="-26709668#0" type="passenger"/>
    <trip id="veh56" depart="57.63" departLane="best" from="404014013" to="23163545#3" type="passenger"/>
    <trip id="veh57" depart="58.66" departLane="best" from="4253993#1" to="22597403#2" type="passenger"/>
    <trip id="veh58" depart="59.69" departLane="best" from="-10341317#0" to="-534024692#3" type="passenger"/>
    <trip id="veh59" depart="60.72" departLane="best" from="-151469109#1" to="602799891#1" type="passenger"/>
    <trip id="veh60" depart="61.75" departLane="best" from="534024686#3" to="4390227#3" type="passenger"/>
    <trip id="veh61" depart="62.78" departLane="best" from="-43309289#1" to="-19092809#1" type="passenger"/>
    <trip id="veh62" depart="63.81" departLane="best" from="534022322#1" to="6584605#2" type="passenger"/>
    <trip id="veh63" depart="64.83" departLane="best" from="-22597403#2" to="18122226#0" type="passenger"/>
    <trip id="veh64" depart="65.86" departLane="best" from="-19823660#0" to="38893516" type="passenger"/>
    <trip id="veh65" depart="66.89" departLane="best" from="404097027" to="-250754903#3" type="passenger"/>
    <trip id="veh66" depart="67.92" departLane="best" from="141351326#0" to="234572145" type="passenger"/>
    <trip id="veh68" depart="69.98" departLane="best" from="19823660#2" to="35803699" type="passenger"/>
    <trip id="veh69" depart="71.01" departLane="best" from="-29046118#1" to="-5044804#0" type="passenger"/>
    <trip id="veh70" depart="72.04" departLane="best" from="9778594#0" to="27267644#0" type="passenger"/>
    <trip id="veh71" depart="73.07" departLane="best" from="-8265571#1" to="207107599#5" type="passenger"/>
    <trip id="veh73" depart="75.13" departLane="best" from="-47048136#2" to="2483870#0" type="passenger"/>
    <trip id="veh74" depart="76.15" departLane="best" from="-319902971#2" to="-381871425#3" type="passenger"/>
    <trip id="veh75" depart="77.18" departLane="best" from="-199514512#1" to="26780887#1" type="passenger"/>
    <trip id="veh76" depart="78.21" departLane="best" from="-313583263#1" to="55337113#1" type="passenger"/>
    <trip id="veh77" depart="79.24" departLane="best" from="497287420" to="-202053028#1" type="passenger"/>
    <trip id="veh78" depart="80.27" departLane="best" from="-32592872" to="29046088" type="passenger"/>
    <trip id="veh79" depart="81.30" departLane="best" from="-30241013#3" to="-253356188#2" type="passenger"/>
    <trip id="veh80" depart="82.33" departLane="best" from="67712889#0" to="2428140#2" type="passenger"/>
    <trip id="veh81" depart="83.36" departLane="best" from="13851546#0" to="4253998" type="passenger"/>
    <trip id="veh82" depart="84.39" departLane="best" from="4338197#0" to="-30199824#2" type="passenger"/>
    <trip id="veh83" depart="85.42" departLane="best" from="-23180860#13" to="119695444#5" type="passenger"/>
    <trip id="veh84" depart="86.45" departLane="best" from="-7742060#14" to="166366047" type="passenger"/>
    <trip id="veh85" depart="87.47" departLane="best" from="345602197#0" to="30073419" type="passenger"/>
    <trip id="veh86" depart="88.50" departLane="best" from="8386794#2" to="-238798322" type="passenger"/>
    <trip id="veh87" depart="89.53" departLane="best" from="-61845018" to="-586604815" type="passenger"/>
    <trip id="veh88" depart="90.56" departLane="best" from="49932186#0" to="-4254683#0" type="passenger"/>
    <trip id="veh89" depart="91.59" departLane="best" from="-274469882#1" to="154540885" type="passenger"/>
    <trip id="veh90" depart="92.62" departLane="best" from="-77103500" to="-4370468#2" type="passenger"/>
    <trip id="veh91" depart="93.65" departLane="best" from="-35803751#2" to="5984345#1" type="passenger"/>
    <trip id="veh92" depart="94.68" departLane="best" from="-8386772#2" to="4884668#5" type="passenger"/>
    <trip id="veh93" depart="95.71" departLane="best" from="207106769" to="-18122224#3" type="passenger"/>
    <trip id="veh94" depart="96.74" departLane="best" from="99961323#0" to="4536592#2" type="passenger"/>
    <trip id="veh95" depart="97.77" departLane="best" from="82123817" to="6010083#0" type="passenger"/>
    <trip id="veh96" depart="98.79" departLane="best" from="48379761#0" to="-26839386#4" type="passenger"/>
    <trip id="veh97" depart="99.82" departLane="best" from="154540891#0" to="-35803751#1" type="passenger"/>
    <trip id="veh98" depart="100.85" departLane="best" from="-609061152#1" to="-19207808#2" type="passenger"/>
    <trip id="veh99" depart="101.88" departLane="best" from="-55697656" to="8386794#0" type="passenger"/>
    <trip id="veh101" depart="103.94" departLane="best" from="-9894931#5" to="108285811" type="passenger"/>
    <trip id="veh102" depart="104.97" departLane="best" from="211950233#2" to="330341#4" type="passenger"/>
    <trip id="veh103" depart="106.00" departLane="best" from="-26291686#0" to="-4711433#0" type="passenger"/>
    <trip id="veh104" depart="107.03" departLane="best" from="82123817" to="245290331#2" type="passenger"/>
    <trip id="veh105" depart="108.06" departLane="best" from="19987400" to="380467033" type="passenger"/>
    <trip id="veh106" depart="109.09" departLane="best" from="-188128548#6" to="246901382" type="passenger"/>
    <trip id="veh107" depart="110.12" departLane="best" from="166482670#0" to="4711433#0" type="passenger"/>
    <trip id="veh108" depart="111.14" departLane="best" from="-26292721#3" to="7744564#0" type="passenger"/>
    <trip id="veh109" depart="112.17" departLane="best" from="-209694798" to="-29046118#0" type="passenger"/>
    <trip id="veh110" depart="113.20" departLane="best" from="2417071#2" to="30073423" type="passenger"/>
    <trip id="veh111" depart="114.23" departLane="best" from="-32263809" to="-2483868#4" type="passenger"/>
    <trip id="veh112" depart="115.26" departLane="best" from="550552885" to="-4254638#5" type="passenger"/>
    <trip id="veh113" depart="116.29" departLane="best" from="2415185#1" to="262591658#0" type="passenger"/>
    <trip id="veh114" depart="117.32" departLane="best" from="-76590370#1" to="246803972#0" type="passenger"/>
    <trip id="veh115" depart="118.35" departLane="best" from="18122230#0" to="61845018" type="passenger"/>
    <trip id="veh116" depart="119.38" departLane="best" from="-30073419" to="327282287#1" type="passenger"/>
    <trip id="veh117" depart="120.41" departLane="best" from="-327298837#0" to="-82123817" type="passenger"/>
    <trip id="veh118" depart="121.44" departLane="best" from="26839389" to="-48379761#1" type="passenger"/>
    <trip id="veh119" depart="122.46" departLane="best" from="-4352297#1" to="38444000" type="passenger"/>
    <trip id="veh120" depart="123.49" departLane="best" from="-201756812#12" to="161652141#8" type="passenger"/>
    <trip id="veh121" depart="124.52" departLane="best" from="99961291" to="9894932" type="passenger"/>
    <trip id="veh122" depart="125.55" departLane="best" from="-201756812#19" to="-35803710#4" type="passenger"/>
    <trip id="veh124" depart="127.61" departLane="best" from="534027366#0" to="5067436" type="passenger"/>
    <trip id="veh125" depart="128.64" departLane="best" from="-534024688#3" to="-26785612#21" type="passenger"/>
    <trip id="veh126" depart="129.67" departLane="best" from="4680832#4" to="313583263#0" type="passenger"/>
    <trip id="veh127" depart="130.70" departLane="best" from="246803972#1" to="8400165" type="passenger"/>
    <trip id="veh128" depart="131.73" departLane="best" from="26374061#1" to="-129375495#0" type="passenger"/>
    <trip id="veh129" depart="132.76" departLane="best" from="26785806#2" to="6268146" type="passenger"/>
    <trip id="veh130" depart="133.78" departLane="best" from="-2498964#3" to="-245290331#3" type="passenger"/>
    <trip id="veh131" depart="134.81" departLane="best" from="-238913756#2" to="236678750#1" type="passenger"/>
    <trip id="veh132" depart="135.84" departLane="best" from="-3996989#0" to="253354178#2" type="passenger"/>
    <trip id="veh133" depart="136.87" departLane="best" from="25359282#2" to="-4264946" type="passenger"/>
    <trip id="veh134" depart="137.90" departLane="best" from="15690838#0" to="55337113#1" type="passenger"/>
    <trip id="veh135" depart="138.93" departLane="best" from="48379487#1" to="-23293117" type="passenger"/>
    <trip id="veh136" depart="139.96" departLane="best" from="-7742060#14" to="-4366264#1" type="passenger"/>
    <trip id="veh137" depart="140.99" departLane="best" from="-109850084#1" to="404014016#5" type="passenger"/>
    <trip id="veh138" depart="142.02" departLane="best" from="2558884#0" to="-4264243#0" type="passenger"/>
    <trip id="veh139" depart="143.05" departLane="best" from="372683468#3" to="235155193" type="passenger"/>
    <trip id="veh140" depart="144.08" departLane="best" from="-8096701#0" to="-132318682#0" type="passenger"/>
    <trip id="veh141" depart="145.10" departLane="best" from="-202053019#4" to="5228769#10" type="passenger"/>
    <trip id="veh142" depart="146.13" departLane="best" from="59117432" to="23279424#2" type="passenger"/>
    <trip id="veh143" depart="147.16" departLane="best" from="4680844#2" to="2466941#7" type="passenger"/>
    <trip id="veh144" depart="148.19" departLane="best" from="-25359282#5" to="-250334905#1" type="passenger"/>
    <trip id="veh145" depart="149.22" departLane="best" from="-4332859#1" to="541926392#0" type="passenger"/>
    <trip id="veh146" depart="150.25" departLane="best" from="4257245" to="4884668#1" type="passenger"/>
    <trip id="veh147" depart="151.28" departLane="best" from="-35803751#0" to="-2415185#1" type="passenger"/>
    <trip id="veh148" depart="152.31" departLane="best" from="4254008" to="5228769#8" type="passenger"/>
    <trip id="veh149" depart="153.34" departLane="best" from="-628446081" to="26291687#4" type="passenger"/>
    <trip id="veh150" depart="154.37" departLane="best" from="-262591658#1" to="602799892#0" type="passenger"/>
    <trip id="veh151" depart="155.40" departLane="best" from="500008415" to="83398075" type="passenger"/>
    <trip id="veh152" depart="156.43" departLane="best" from="4340908#0" to="51954144#0" type="passenger"/>
    <trip id="veh153" depart="157.45" departLane="best" from="-156785169#1" to="36775925" type="passenger"/>
    <trip id="veh154" depart="158.48" departLane="best" from="-4607838" to="607098842#0" type="passenger"/>
    <trip id="veh155" depart="159.51" departLane="best" from="4264944#2" to="493711858#0" type="passenger"/>
    <trip id="veh156" depart="160.54" departLane="best" from="4340908#0" to="-4332859#0" type="passenger"/>
    <trip id="veh157" depart="161.57" departLane="best" from="4255941" to="-2430840#2" type="passenger"/>
    <trip id="veh158" depart="162.60" departLane="best" from="5228769#7" to="48379508#0" type="passenger"/>
    <trip id="veh159" depart="163.63" departLane="best" from="-30727695#0" to="4340913" type="passenger"/>
    <trip id="veh160" depart="164.66" departLane="best" from="108285811" to="-48870276#1" type="passenger"/>
    <trip id="veh161" depart="165.69" departLane="best" from="4257242#0" to="-398992765" type="passenger"/>
    <trip id="veh162" depart="166.72" departLane="best" from="-154540890" to="-304095757#0" type="passenger"/>
    <trip id="veh163" depart="167.75" departLane="best" from="-4536593#0" to="493711858#1" type="passenger"/>
    <trip id="veh164" depart="168.77" departLane="best" from="8179134#3" to="-4390217#0" type="passenger"/>
    <trip id="veh165" depart="169.80" departLane="best" from="25859274#4" to="-8258987#1" type="passenger"/>
    <trip id="veh166" depart="170.83" departLane="best" from="8386773#2" to="230498539" type="passenger"/>
    <trip id="veh167" depart="171.86" departLane="best" from="72056639" to="-245290331#2" type="passenger"/>
    <trip id="veh168" depart="172.89" departLane="best" from="82124997#5" to="-27577234#2" type="passenger"/>
    <trip id="veh169" depart="173.92" departLane="best" from="8173089#0" to="-4281328#0" type="passenger"/>
    <trip id="veh170" depart="174.95" departLane="best" from="-2415174#1" to="129375498#1" type="passenger"/>
    <trip id="veh171" depart="175.98" departLane="best" from="34294007#3" to="-5067434#3" type="passenger"/>
    <trip id="veh172" depart="177.01" departLane="best" from="24442744#0" to="201756812#7" type="passenger"/>
    <trip id="veh173" depart="178.04" departLane="best" from="-564115143#1" to="24417542#5" type="passenger"/>
    <trip id="veh176" depart="181.12" departLane="best" from="19803933" to="3318926#1" type="passenger"/>
    <trip id="veh177" depart="182.15" departLane="best" from="37371128" to="29057532#1" type="passenger"/>
    <trip id="veh178" depart="183.18" departLane="best" from="-527688915#1" to="-202053019#2" type="passenger"/>
    <trip id="veh179" depart="184.21" departLane="best" from="26785807" to="-542827483#0" type="passenger"/>
    <trip id="veh180" depart="185.24" departLane="best" from="-4340910#1" to="47009515#2" type="passenger"/>
    <trip id="veh181" depart="186.27" departLane="best" from="327282307" to="-484390364#0" type="passenger"/>
    <trip id="veh182" depart="187.30" departLane="best" from="-4336664#1" to="-8386794#4" type="passenger"/>
    <trip id="veh183" depart="188.33" departLane="best" from="-61841419" to="-4711430#2" type="passenger"/>
    <trip id="veh184" depart="189.36" departLane="best" from="-246803971#0" to="-99961323#0" type="passenger"/>
    <trip id="veh185" depart="190.39" departLane="best" from="72058120" to="30097933#1" type="passenger"/>
    <trip id="veh186" depart="191.42" departLane="best" from="586151544#1" to="2576387#1" type="passenger"/>
    <trip id="veh187" depart="192.44" departLane="best" from="-4264944#2" to="234288790#0" type="passenger"/>
    <trip id="veh188" depart="193.47" departLane="best" from="-102273802#2" to="-4607834#1" type="passenger"/>
    <trip id="veh189" depart="194.50" departLane="best" from="-81446467#0" to="246647169#0" type="passenger"/>
    <trip id="veh190" depart="195.53" departLane="best" from="26709508" to="16297152#3" type="passenger"/>
    <trip id="veh191" depart="196.56" departLane="best" from="-8386768#0" to="-35803751#1" type="passenger"/>
    <trip id="veh192" depart="197.59" departLane="best" from="13851546#3" to="542829556#1" type="passenger"/>
    <trip id="veh193" depart="198.62" departLane="best" from="4257244#2" to="-26943778#4" type="passenger"/>
    <trip id="veh194" depart="199.65" departLane="best" from="-224187822" to="205586178#1" type="passenger"/>
    <trip id="veh195" depart="200.68" departLane="best" from="25359276#4" to="-558603482#2" type="passenger"/>
    <trip id="veh196" depart="201.71" departLane="best" from="4366295#1" to="381871425#1" type="passenger"/>
    <trip id="veh197" depart="202.74" departLane="best" from="26943778#0" to="-38846764#0" type="passenger"/>
    <trip id="veh198" depart="203.76" departLane="best" from="-286754711#1" to="-15690838#1" type="passenger"/>
    <trip id="veh199" depart="204.79" departLane="best" from="-34293999" to="17513366#3" type="passenger"/>
    <trip id="veh200" depart="205.82" departLane="best" from="484390364#1" to="-207107599#0" type="passenger"/>
    <trip id="veh201" depart="206.85" departLane="best" from="-67386011#1" to="26710149" type="passenger"/>
    <trip id="veh202" depart="207.88" departLane="best" from="-27928334" to="30728820" type="passenger"/>
    <trip id="veh203" depart="208.91" departLane="best" from="16295338#1" to="-4253995#0" type="passenger"/>
    <trip id="veh204" depart="209.94" departLane="best" from="26709655" to="-119695444#1" type="passenger"/>
    <trip id="veh205" depart="210.97" departLane="best" from="381871425#1" to="404014015#7" type="passenger"/>
    <trip id="veh206" depart="212.00" departLane="best" from="-238913756#0" to="109850055" type="passenger"/>
    <trip id="veh207" depart="213.03" departLane="best" from="-26801532#2" to="7742060#15" type="passenger"/>
    <trip id="veh208" depart="214.06" departLane="best" from="179642843" to="-18122224#1" type="passenger"/>
    <trip id="veh209" depart="215.08" departLane="best" from="-35803710#4" to="47009631#2" type="passenger"/>
    <trip id="veh210" depart="216.11" departLane="best" from="-99961287#2" to="4264243#6" type="passenger"/>
    <trip id="veh211" depart="217.14" departLane="best" from="26815501#1" to="8400165" type="passenger"/>
    <trip id="veh212" depart="218.17" departLane="best" from="2417071#5" to="68506857" type="passenger"/>
    <trip id="veh213" depart="219.20" departLane="best" from="552732632#1" to="2558884#1" type="passenger"/>
    <trip id="veh214" depart="220.23" departLane="best" from="327282287#1" to="19823660#2" type="passenger"/>
    <trip id="veh215" depart="221.26" departLane="best" from="45887559#1" to="234288790#0" type="passenger"/>
    <trip id="veh216" depart="222.29" departLane="best" from="561132269#0" to="374047987#5" type="passenger"/>
    <trip id="veh217" depart="223.32" departLane="best" from="140635085#0" to="-4257254#5" type="passenger"/>
    <trip id="veh218" depart="224.35" departLane="best" from="-35209032" to="26785806#3" type="passenger"/>
    <trip id="veh219" depart="225.38" departLane="best" from="404097027" to="210335525#2" type="passenger"/>
    <trip id="veh220" depart="226.40" departLane="best" from="-206996918#2" to="-458181878#0" type="passenger"/>
    <trip id="veh221" depart="227.43" departLane="best" from="-39939643" to="-53368577" type="passenger"/>
    <trip id="veh222" depart="228.46" departLane="best" from="198658661#1" to="-2558884#1" type="passenger"/>
    <trip id="veh224" depart="230.52" departLane="best" from="30727695#1" to="-19823660#0" type="passenger"/>
    <trip id="veh225" depart="231.55" departLane="best" from="-6570848#2" to="23180860#13" type="passenger"/>
    <trip id="veh226" depart="232.58" departLane="best" from="-68501768#2" to="-33232746#1" type="passenger"/>
    <trip id="veh227" depart="233.61" departLane="best" from="-76842606" to="55337113#1" type="passenger"/>
    <trip id="veh228" depart="234.64" departLane="best" from="235993418" to="30727696#0" type="passenger"/>
    <trip id="veh229" depart="235.67" departLane="best" from="49513439" to="39901110" type="passenger"/>
    <trip id="veh230" depart="236.70" departLane="best" from="-55697660#1" to="-119695444#3" type="passenger"/>
    <trip id="veh231" depart="237.73" departLane="best" from="-497287410#0" to="38752553#10" type="passenger"/>
    <trip id="veh232" depart="238.75" departLane="best" from="48870263#0" to="76590370#0" type="passenger"/>
    <trip id="veh233" depart="239.78" departLane="best" from="-76590370#0" to="37725870" type="passenger"/>
    <trip id="veh234" depart="240.81" departLane="best" from="201760880#0" to="253350830#4" type="passenger"/>
    <trip id="veh235" depart="241.84" departLane="best" from="-30691664#0" to="-381871422#0" type="passenger"/>
    <trip id="veh236" depart="242.87" departLane="best" from="-82124997#5" to="-16292271#2" type="passenger"/>
    <trip id="veh237" depart="243.90" departLane="best" from="-4680844#2" to="30193003#5" type="passenger"/>
    <trip id="veh238" depart="244.93" departLane="best" from="-623074134#1" to="-26838537" type="passenger"/>
    <trip id="veh239" depart="245.96" departLane="best" from="120340387" to="-250334905#2" type="passenger"/>
    <trip id="veh240" depart="246.99" departLane="best" from="250334905#3" to="-160532844#4" type="passenger"/>
    <trip id="veh241" depart="248.02" departLane="best" from="-6010071#0" to="2415185#2" type="passenger"/>
    <trip id="veh242" depart="249.05" departLane="best" from="-15693515#2" to="26801532#2" type="passenger"/>
    <trip id="veh243" depart="250.07" departLane="best" from="-2499081#0" to="16295373" type="passenger"/>
    <trip id="veh244" depart="251.10" departLane="best" from="-17691749" to="-77106238" type="passenger"/>
    <trip id="veh245" depart="252.13" departLane="best" from="-30198798" to="-534087835#6" type="passenger"/>
    <trip id="veh246" depart="253.16" departLane="best" from="39939641#3" to="-77106238" type="passenger"/>
    <trip id="veh247" depart="254.19" departLane="best" from="38748146#0" to="4390264#0" type="passenger"/>
    <trip id="veh248" depart="255.22" departLane="best" from="-367552591" to="-22780528" type="passenger"/>
    <trip id="veh249" depart="256.25" departLane="best" from="-151469109#1" to="23163545#3" type="passenger"/>
    <trip id="veh250" depart="257.28" departLane="best" from="99961324#2" to="-609056649" type="passenger"/>
    <trip id="veh251" depart="258.31" departLane="best" from="26294019#1" to="4253828#0" type="passenger"/>
    <trip id="veh252" depart="259.34" departLane="best" from="26372295#0" to="38752553#2" type="passenger"/>
    <trip id="veh253" depart="260.37" departLane="best" from="76848432" to="-3127740#2" type="passenger"/>
    <trip id="veh254" depart="261.39" departLane="best" from="-152822405#0" to="-26709645#3" type="passenger"/>
    <trip id="veh255" depart="262.42" departLane="best" from="-2466941#4" to="29046118#0" type="passenger"/>
    <trip id="veh256" depart="263.45" departLane="best" from="226098089" to="-374047987#3" type="passenger"/>
    <trip id="veh257" depart="264.48" departLane="best" from="30199824#6" to="39939643" type="passenger"/>
    <trip id="veh258" depart="265.51" departLane="best" from="-26785612#6" to="253360359" type="passenger"/>
    <trip id="veh259" depart="266.54" departLane="best" from="380467034" to="-24442744#2" type="passenger"/>
    <trip id="veh260" depart="267.57" departLane="best" from="4367366#2" to="8096707#4" type="passenger"/>
    <trip id="veh261" depart="268.60" departLane="best" from="-238913756#9" to="-157005631#1" type="passenger"/>
    <trip id="veh262" depart="269.63" departLane="best" from="-4340906#1" to="30097933#1" type="passenger"/>
    <trip id="veh263" depart="270.66" departLane="best" from="7744564#2" to="-82124997#4" type="passenger"/>
    <trip id="veh264" depart="271.69" departLane="best" from="315631025#0" to="-224097266#2" type="passenger"/>
    <trip id="veh265" depart="272.72" departLane="best" from="290053779#1" to="26374214#1" type="passenger"/>
    <trip id="veh266" depart="273.74" departLane="best" from="-236881840#1" to="4081005#0" type="passenger"/>
    <trip id="veh267" depart="274.77" departLane="best" from="4884668#0" to="2514020#2" type="passenger"/>
    <trip id="veh268" depart="275.80" departLane="best" from="-24417542#10" to="8386786#3" type="passenger"/>
    <trip id="veh269" depart="276.83" departLane="best" from="4254652#1" to="-6010083#1" type="passenger"/>
    <trip id="veh270" depart="277.86" departLane="best" from="-8096701#4" to="-72058125#1" type="passenger"/>
    <trip id="veh271" depart="278.89" departLane="best" from="166585298#8" to="-59117439" type="passenger"/>
    <trip id="veh272" depart="279.92" departLane="best" from="484390364#0" to="4366264#0" type="passenger"/>
    <trip id="veh273" depart="280.95" departLane="best" from="-238798321" to="7744564#0" type="passenger"/>
    <trip id="veh275" depart="283.01" departLane="best" from="3100051" to="129375498#4" type="passenger"/>
    <trip id="veh276" depart="284.04" departLane="best" from="360934007#0" to="8173089#1" type="passenger"/>
    <trip id="veh277" depart="285.06" departLane="best" from="-39901110" to="43309289#1" type="passenger"/>
    <trip id="veh278" depart="286.09" departLane="best" from="19803901#0" to="17979698#1" type="passenger"/>
    <trip id="veh279" depart="287.12" departLane="best" from="-82124997#4" to="35803751#1" type="passenger"/>
    <trip id="veh280" depart="288.15" departLane="best" from="-396327478#1" to="47048979" type="passenger"/>
    <trip id="veh281" depart="289.18" departLane="best" from="4607833" to="-23167685#0" type="passenger"/>
    <trip id="veh282" depart="290.21" departLane="best" from="534027371#0" to="-4253995#0" type="passenger"/>