<?xml version="1.0" encoding="UTF-8"?>

<!-- generated on 09/27/18 15:53:06 by SUMO polyconvert Version 0.32.0
<?xml version="1.0" encoding="UTF-8"?>

<configuration xmlns:xsi="http://www.w3.org/2001/XMLSchema-instance" xsi:noNamespaceSchemaLocation="http://sumo.dlr.de/xsd/polyconvertConfiguration.xsd">

    <input>
        <net-file value="C:\Users\acabrejasegea\Sumo\2018-09-27-15-52-48\osm.net.xml"/>
        <osm-files value="osm_bbox.osm.xml"/>
        <osm.keep-full-type value="true"/>
        <type-file value="C:\Program%20Files%20(x86)\DLR\Sumo\data\typemap\osmPolyconvert.typ.xml"/>
    </input>

    <output>
        <output-file value="C:\Users\acabrejasegea\Sumo\2018-09-27-15-52-48\osm.poly.xml"/>
    </output>

    <processing>
        <poi-layer-offset value="5"/>
    </processing>

    <report>
        <verbose value="true"/>
    </report>

</configuration>
-->

<additional xmlns:xsi="http://www.w3.org/2001/XMLSchema-instance" xsi:noNamespaceSchemaLocation="http://sumo.dlr.de/xsd/additional_file.xsd">
    <location netOffset="-696494.24,-5710220.17" convBoundary="-1719.53,-2388.40,11688.98,10905.25" origBoundary="-0.191477,51.486273,0.000801,51.604023" projParameter="+proj=utm +zone=30 +ellps=WGS84 +datum=WGS84 +units=m +no_defs"/>

    <poly id="100190846" type="leisure.park" color="207,245,201" fill="1" layer="-2.00" shape="3946.10,2181.12 3952.61,2173.13 3976.13,2148.56 3977.78,2142.47 3977.64,2138.37 3974.10,2132.42 3936.46,2103.88 3930.99,2101.86 3926.75,2104.03 3897.35,2134.37 3895.55,2136.46 3946.10,2181.12"/>
    <poly id="100190863" type="building.yes" color="255,230,230" fill="1" layer="-1.00" shape="3929.81,2140.72 3936.08,2145.31 3933.46,2148.86 3927.19,2144.26 3929.81,2140.72"/>
    <poly id="100191505" type="building.yes" color="255,230,230" fill="1" layer="-1.00" shape="3868.47,2162.14 3897.36,2187.22 3901.05,2182.97 3897.51,2179.90 3899.18,2177.99 3878.72,2160.22 3879.90,2158.87 3875.02,2154.64 3868.47,2162.14"/>
    <poly id="100191516" type="building.yes" color="255,230,230" fill="1" layer="-1.00" shape="3897.36,2187.22 3919.83,2206.74 3924.27,2201.65 3920.05,2198.00 3922.50,2195.19 3903.05,2178.31 3901.46,2180.14 3902.64,2181.16 3901.05,2182.97 3897.36,2187.22"/>
    <poly id="100191526" type="building.house" color="255,230,230" fill="1" layer="-1.00" shape="3933.12,2177.21 3927.55,2183.78 3928.77,2184.89 3926.07,2187.87 3928.17,2189.77 3930.95,2186.71 3931.63,2187.32 3937.27,2180.96 3933.12,2177.21"/>
    <poly id="100195819" type="building.residential" color="255,230,230" fill="1" layer="-1.00" shape="3908.82,2235.05 3915.30,2227.80 3910.04,2223.11 3910.64,2222.45 3889.54,2203.67 3883.47,2210.46 3893.25,2219.15 3890.02,2222.77 3892.17,2224.67 3895.53,2220.90 3906.44,2230.60 3905.27,2231.90 3908.82,2235.05"/>
    <poly id="100195845" type="building.residential" color="255,230,230" fill="1" layer="-1.00" shape="3824.60,2172.97 3834.70,2161.45 3832.72,2159.73 3837.15,2154.68 3829.99,2148.44 3829.72,2148.74 3823.64,2155.68 3825.31,2157.15 3817.14,2166.46 3824.60,2172.97"/>
    <poly id="100195860" type="building.yes" color="255,230,230" fill="1" layer="-1.00" shape="3841.59,2247.43 3836.30,2240.33 3822.97,2250.19 3848.58,2284.79 3861.83,2275.00 3856.96,2268.36 3850.00,2273.50 3834.47,2252.57 3841.59,2247.43"/>
    <poly id="100195865" type="amenity.parking" color="184,184,179" fill="1" layer="-1.00" shape="3844.91,2244.92 3857.62,2236.21 3850.97,2226.57 3840.29,2211.05 3827.58,2219.76 3844.91,2244.92"/>
    <poly id="100195874" type="building.yes" color="255,230,230" fill="1" layer="-1.00" shape="3810.29,2200.24 3805.69,2192.70 3791.51,2201.30 3813.96,2238.09 3828.02,2229.56 3823.71,2222.51 3816.41,2226.94 3802.87,2204.74 3810.29,2200.24"/>
    <poly id="100195882" type="building.yes" color="255,230,230" fill="1" layer="-1.00" shape="3864.13,2269.96 3898.36,2235.01 3891.03,2227.89 3887.71,2231.28 3889.44,2232.97 3885.07,2237.44 3881.65,2234.10 3879.43,2236.36 3882.82,2239.68 3861.92,2261.02 3860.47,2259.61 3857.07,2263.08 3864.13,2269.96"/>
    <poly id="100195965" type="landuse.grass" color="194,194,130" fill="1" layer="-3.00" shape="3883.69,2222.51 3884.05,2224.35 3874.62,2234.53 3863.26,2238.68 3856.25,2229.22 3848.90,2219.57 3843.99,2211.76 3851.78,2205.92 3858.17,2204.53 3865.66,2197.46 3882.79,2212.34 3881.00,2220.15 3883.69,2222.51"/>
    <poly id="100260369" type="building.terrace" color="255,230,230" fill="1" layer="-1.00" shape="3738.51,2132.12 3739.41,2134.92 3737.87,2135.41 3738.77,2138.18 3740.19,2137.72 3740.83,2139.72 3739.12,2140.27 3739.99,2142.96 3741.83,2142.36 3743.37,2147.13 3744.25,2149.86 3741.46,2150.76 3742.55,2154.12 3754.42,2150.31 3747.60,2129.19 3744.36,2130.24 3738.51,2132.12"/>
    <poly id="100260417" type="building.yes" color="255,230,230" fill="1" layer="-1.00" shape="3713.10,2131.57 3715.32,2133.93 3721.28,2140.28 3720.98,2140.56 3705.28,2155.21 3682.25,2176.69 3678.54,2172.75 3673.43,2177.51 3668.52,2182.10 3671.74,2185.52 3664.26,2192.50 3661.24,2189.27 3653.61,2196.40 3656.66,2199.66 3650.37,2205.52 3647.51,2202.46 3645.90,2203.96 3641.05,2198.80 3669.00,2172.73 3713.10,2131.57"/>
    <poly id="100260417#1" type="tourism.hotel" color="207,245,201" fill="1" layer="-2.00" shape="3713.10,2131.57 3715.32,2133.93 3721.28,2140.28 3720.98,2140.56 3705.28,2155.21 3682.25,2176.69 3678.54,2172.75 3673.43,2177.51 3668.52,2182.10 3671.74,2185.52 3664.26,2192.50 3661.24,2189.27 3653.61,2196.40 3656.66,2199.66 3650.37,2205.52 3647.51,2202.46 3645.90,2203.96 3641.05,2198.80 3669.00,2172.73 3713.10,2131.57"/>
    <poly id="100260421" type="building.yes" color="255,230,230" fill="1" layer="-1.00" shape="3716.53,2121.65 3722.15,2127.63 3721.18,2128.53 3722.48,2129.92 3719.51,2132.70 3717.77,2134.32 3716.43,2132.90 3715.32,2133.93 3713.10,2131.57 3709.74,2127.99 3712.46,2125.45 3716.53,2121.65"/>
    <poly id="100260432" type="amenity.parking" color="184,184,179" fill="1" layer="-1.00" shape="3732.52,2131.58 3727.55,2132.90 3725.45,2134.37 3730.57,2143.69 3731.90,2147.25 3737.59,2145.63 3732.52,2131.58"/>
    <poly id="100260435" type="amenity.parking" color="184,184,179" fill="1" layer="-1.00" shape="3711.54,2161.77 3705.28,2155.21 3720.98,2140.56 3723.53,2138.15 3726.32,2135.93 3730.57,2143.69 3711.54,2161.77"/>
    <poly id="100260444" type="building.terrace" color="255,230,230" fill="1" layer="-1.00" shape="3693.52,2202.12 3673.26,2221.25 3672.69,2221.78 3666.65,2215.42 3670.63,2211.65 3667.71,2208.57 3670.18,2206.24 3673.13,2209.34 3678.82,2203.97 3675.98,2200.99 3678.35,2198.74 3681.14,2201.68 3683.03,2199.91 3680.07,2196.79 3682.67,2194.34 3685.68,2197.51 3687.50,2195.78 3693.52,2202.12"/>
    <poly id="100260450" type="building.terrace" color="255,230,230" fill="1" layer="-1.00" shape="3637.30,2199.30 3642.82,2204.85 3636.64,2209.94 3612.35,2233.39 3606.62,2241.36 3602.07,2239.35 3603.08,2238.03 3601.30,2236.77 3606.32,2228.62 3607.04,2228.49 3631.45,2203.93 3637.30,2199.30"/>
    <poly id="100260457" type="building.terrace" color="255,230,230" fill="1" layer="-1.00" shape="3629.33,2251.56 3647.34,2259.68 3647.66,2258.87 3650.65,2252.48 3651.24,2251.03 3649.70,2250.34 3652.13,2244.98 3646.64,2242.50 3644.06,2248.20 3640.52,2246.61 3643.18,2240.73 3637.77,2238.30 3635.15,2244.07 3633.13,2243.16 3629.33,2251.56"/>
    <poly id="100260465" type="building.yes" color="255,230,230" fill="1" layer="-1.00" shape="3667.17,2269.49 3669.39,2267.27 3670.65,2268.54 3673.09,2266.10 3671.84,2264.85 3673.56,2263.14 3650.65,2252.48 3647.66,2258.87 3649.71,2259.83 3649.15,2261.03 3656.06,2264.24 3656.76,2262.74 3660.04,2264.26 3659.29,2265.88 3667.17,2269.49"/>
    <poly id="100260471" type="building.terrace" color="255,230,230" fill="1" layer="-1.00" shape="3673.26,2221.25 3693.89,2242.97 3687.09,2249.40 3682.89,2244.98 3680.06,2247.65 3676.86,2244.28 3679.69,2241.60 3674.83,2236.49 3673.00,2238.21 3670.88,2235.97 3672.69,2234.27 3666.44,2227.69 3672.69,2221.78 3673.26,2221.25"/>
    <poly id="100260476" type="building.yes" color="255,230,230" fill="1" layer="-1.00" shape="3685.07,2273.17 3683.83,2275.77 3686.07,2276.83 3685.67,2277.67 3693.34,2281.31 3693.88,2280.15 3696.47,2281.38 3695.89,2282.59 3705.09,2286.97 3709.75,2277.19 3706.34,2275.57 3705.46,2277.40 3689.09,2269.63 3685.07,2273.17"/>
    <poly id="100260483" type="building.terrace" color="255,230,230" fill="1" layer="-1.00" shape="3704.33,2253.64 3727.35,2278.74 3728.63,2280.13 3728.18,2280.54 3722.59,2285.47 3721.31,2286.80 3720.08,2285.45 3706.07,2270.20 3705.09,2271.10 3696.03,2261.22 3704.33,2253.64"/>
    <poly id="100260510" type="building.terrace" color="255,230,230" fill="1" layer="-1.00" shape="3722.59,2285.47 3721.31,2286.80 3720.08,2285.45 3717.18,2291.57 3718.52,2292.21 3717.96,2293.39 3725.84,2297.09 3726.54,2295.60 3729.15,2296.82 3728.47,2298.27 3736.42,2302.02 3736.96,2300.85 3739.40,2302.00 3741.84,2303.15 3741.21,2304.49 3749.12,2308.23 3749.62,2307.19 3752.19,2308.39 3751.78,2309.25 3755.48,2310.99 3754.98,2312.03 3760.61,2314.69 3761.70,2312.39 3763.30,2313.14 3762.76,2314.29 3770.24,2317.82 3770.65,2316.94 3771.90,2317.52 3770.93,2319.55 3776.38,2322.13 3776.87,2321.10 3781.24,2323.16 3781.77,2322.03 3783.80,2322.99 3783.24,2324.17 3787.79,2326.31 3787.38,2327.17 3793.13,2329.88 3794.85,2326.11 3799.10,2319.47 3793.87,2317.43 3793.32,2318.61 3787.87,2316.05 3789.89,2311.77 3786.95,2310.39 3784.94,2314.63 3764.98,2305.22 3765.66,2303.79 3760.43,2301.32 3759.66,2302.94 3744.39,2295.74 3722.59,2285.47"/>
    <poly id="100260527" type="building.terrace" color="255,230,230" fill="1" layer="-1.00" shape="3770.71,2241.07 3748.31,2216.19 3755.36,2209.89 3776.73,2233.53 3777.72,2234.85 3776.92,2235.45 3771.85,2240.05 3770.71,2241.07"/>
    <poly id="100260571" type="building.terrace" color="255,230,230" fill="1" layer="-1.00" shape="3776.92,2235.45 3791.13,2254.26 3789.50,2255.48 3793.67,2261.00 3795.10,2259.92 3822.81,2296.60 3830.67,2290.70 3827.73,2286.80 3826.31,2287.87 3819.15,2278.39 3818.10,2279.18 3816.02,2276.45 3817.31,2275.48 3811.38,2267.66 3810.28,2268.49 3808.29,2265.87 3809.36,2265.07 3803.57,2257.40 3802.50,2258.20 3800.53,2255.58 3801.83,2254.61 3795.91,2246.78 3794.63,2247.74 3792.54,2244.97 3793.48,2244.27 3787.79,2236.74 3787.14,2237.21 3786.25,2236.03 3787.07,2235.42 3782.42,2229.25 3776.73,2233.53 3777.72,2234.85 3776.92,2235.45"/>
    <poly id="100260595" type="building.yes" color="255,230,230" fill="1" layer="-1.00" shape="3761.43,2201.25 3769.09,2194.11 3775.42,2213.73 3769.92,2215.50 3766.80,2205.81 3763.26,2206.94 3761.43,2201.25"/>
    <poly id="100260608" type="building.yes" color="255,230,230" fill="1" layer="-1.00" shape="3775.18,2261.77 3765.26,2270.49 3769.78,2275.72 3779.70,2266.99 3775.18,2261.77"/>
    <poly id="100260616" type="building.yes" color="255,230,230" fill="1" layer="-1.00" shape="3777.84,2289.21 3772.26,2285.38 3775.30,2281.10 3780.87,2284.95 3777.84,2289.21"/>
    <poly id="100260628" type="building.terrace" color="255,230,230" fill="1" layer="-1.00" shape="3804.60,2335.33 3826.59,2308.15 3833.63,2313.82 3809.82,2343.25 3807.02,2342.05 3806.22,2343.86 3802.23,2342.13 3802.97,2340.45 3801.07,2339.62 3804.08,2336.49 3804.60,2335.33"/>
    <poly id="100260633" type="building.yes" color="255,230,230" fill="1" layer="-1.00" shape="3826.59,2308.15 3832.69,2300.71 3838.24,2307.96 3833.63,2313.82 3826.59,2308.15"/>
    <poly id="100262276" type="building.terrace" color="255,230,230" fill="1" layer="-1.00" shape="3601.81,2271.00 3607.38,2273.44 3605.01,2278.81 3607.75,2280.01 3609.75,2275.46 3613.23,2276.99 3611.24,2281.49 3616.51,2283.80 3618.41,2279.51 3622.62,2281.36 3620.64,2285.86 3623.26,2287.02 3629.02,2273.95 3605.13,2263.46 3602.36,2269.74 3601.81,2271.00"/>
    <poly id="100262277" type="building.terrace" color="255,230,230" fill="1" layer="-1.00" shape="3631.31,2274.76 3737.87,2322.37 3734.04,2330.90 3728.92,2328.62 3728.24,2330.14 3722.62,2327.63 3723.19,2326.38 3679.99,2307.08 3679.50,2308.18 3674.87,2306.12 3675.29,2305.19 3658.99,2297.90 3659.50,2296.77 3627.79,2282.60 3631.31,2274.76"/>
    <poly id="100262278" type="building.yes" color="255,230,230" fill="1" layer="-1.00" shape="3609.77,2305.95 3617.60,2309.21 3618.08,2307.89 3620.24,2308.98 3624.72,2311.17 3634.11,2315.87 3637.12,2308.05 3638.88,2302.04 3629.80,2298.38 3627.87,2302.19 3624.14,2300.27 3623.78,2298.48 3622.09,2298.58 3614.27,2294.99 3609.77,2305.95"/>
    <poly id="100262279" type="building.terrace" color="255,230,230" fill="1" layer="-1.00" shape="3585.57,2283.89 3599.23,2287.71 3599.79,2284.19 3594.93,2282.90 3595.93,2278.88 3601.12,2280.45 3601.92,2277.61 3596.23,2275.69 3597.87,2268.40 3602.36,2269.74 3605.13,2263.46 3592.72,2257.22 3585.57,2283.89"/>
    <poly id="100262280" type="building.yes" color="255,230,230" fill="1" layer="-1.00" shape="3604.91,2300.04 3604.38,2305.15 3603.19,2316.71 3601.73,2316.55 3583.42,2314.66 3585.21,2297.38 3581.49,2297.23 3581.87,2287.54 3587.88,2287.78 3588.20,2288.30 3591.49,2288.51 3591.16,2292.55 3607.76,2294.64 3606.44,2300.17 3604.91,2300.04"/>
    <poly id="100262283" type="building.yes" color="255,230,230" fill="1" layer="-1.00" shape="3591.27,2320.27 3601.05,2321.13 3600.41,2328.37 3604.77,2328.75 3604.62,2330.41 3603.25,2345.96 3598.56,2345.56 3599.44,2335.71 3589.98,2334.87 3591.27,2320.27"/>
    <poly id="100262284" type="building.yes" color="255,230,230" fill="1" layer="-1.00" shape="3578.46,2321.55 3589.01,2322.77 3587.58,2335.03 3577.03,2333.82 3578.46,2321.55"/>
    <poly id="100262285" type="building.yes" color="255,230,230" fill="1" layer="-1.00" shape="3604.60,2366.49 3574.84,2354.15 3575.78,2336.80 3588.34,2338.21 3589.98,2334.87 3599.44,2335.71 3598.56,2345.56 3598.11,2352.62 3606.96,2355.67 3605.03,2359.65 3607.03,2360.40 3604.60,2366.49"/>
    <poly id="100262285#1" type="tourism.hostel" color="207,245,201" fill="1" layer="-2.00" shape="3604.60,2366.49 3574.84,2354.15 3575.78,2336.80 3588.34,2338.21 3589.98,2334.87 3599.44,2335.71 3598.56,2345.56 3598.11,2352.62 3606.96,2355.67 3605.03,2359.65 3607.03,2360.40 3604.60,2366.49"/>
    <poly id="100262286" type="building.terrace" color="255,230,230" fill="1" layer="-1.00" shape="3604.60,2366.49 3620.22,2372.68 3623.44,2364.60 3607.81,2358.41 3607.03,2360.40 3604.60,2366.49"/>
    <poly id="100262287" type="building.yes" color="255,230,230" fill="1" layer="-1.00" shape="3607.71,2334.56 3612.20,2336.74 3624.72,2311.17 3620.24,2308.98 3618.63,2312.26 3608.94,2332.06 3607.71,2334.56"/>
    <poly id="100262288" type="amenity.parking" color="184,184,179" fill="1" layer="-1.00" shape="3608.94,2332.06 3604.62,2330.41 3604.77,2328.75 3600.41,2328.37 3601.05,2321.13 3601.37,2318.96 3601.73,2316.55 3603.19,2316.71 3604.38,2305.15 3609.77,2305.95 3617.60,2309.21 3618.63,2312.26 3608.94,2332.06"/>
    <poly id="100264369" type="amenity.pub" color="237,199,199" fill="1" layer="-1.00" shape="3523.73,2457.69 3532.42,2464.07 3533.14,2464.43 3534.20,2464.57 3534.99,2464.21 3535.75,2463.29 3540.98,2455.62 3540.61,2455.37 3532.26,2449.87 3530.17,2453.80 3527.29,2451.95 3524.54,2456.38 3523.73,2457.69"/>
    <poly id="100264369#1" type="building.yes" color="255,230,230" fill="1" layer="-1.00" shape="3523.73,2457.69 3532.42,2464.07 3533.14,2464.43 3534.20,2464.57 3534.99,2464.21 3535.75,2463.29 3540.98,2455.62 3540.61,2455.37 3532.26,2449.87 3530.17,2453.80 3527.29,2451.95 3524.54,2456.38 3523.73,2457.69"/>
    <poly id="100264370" type="amenity.restaurant" color="237,199,199" fill="1" layer="-1.00" shape="3540.61,2455.37 3543.70,2450.57 3535.71,2445.96 3535.04,2446.94 3534.17,2446.81 3532.26,2449.87 3540.61,2455.37"/>
    <poly id="100264370#1" type="building.yes" color="255,230,230" fill="1" layer="-1.00" shape="3540.61,2455.37 3543.70,2450.57 3535.71,2445.96 3535.04,2446.94 3534.17,2446.81 3532.26,2449.87 3540.61,2455.37"/>
    <poly id="100264371" type="building.yes" color="255,230,230" fill="1" layer="-1.00" shape="3543.70,2450.57 3546.28,2435.47 3537.72,2434.17 3536.39,2438.27 3533.37,2444.90 3535.71,2445.96 3543.70,2450.57"/>
    <poly id="100264372" type="building.yes" color="255,230,230" fill="1" layer="-1.00" shape="3546.28,2435.47 3546.95,2429.61 3538.83,2426.87 3538.75,2428.85 3535.58,2428.29 3535.05,2430.63 3538.21,2431.53 3537.72,2434.17 3546.28,2435.47"/>
    <poly id="100264373" type="building.yes" color="255,230,230" fill="1" layer="-1.00" shape="3546.95,2429.61 3547.38,2424.66 3547.21,2424.16 3546.49,2423.80 3536.39,2420.03 3535.25,2425.63 3538.83,2426.87 3546.95,2429.61"/>
    <poly id="100264374" type="building.terrace" color="255,230,230" fill="1" layer="-1.00" shape="3533.08,2418.11 3460.39,2389.80 3454.72,2404.19 3457.26,2405.14 3458.95,2400.58 3461.16,2401.40 3459.57,2405.67 3462.29,2406.68 3463.96,2402.23 3468.32,2403.85 3466.67,2408.28 3469.83,2409.45 3471.66,2404.52 3495.92,2413.51 3495.44,2414.78 3500.91,2416.81 3501.36,2415.61 3530.05,2426.24 3533.08,2418.11"/>
    <poly id="100264375" type="building.yes" color="255,230,230" fill="1" layer="-1.00" shape="3486.74,2440.80 3519.22,2451.90 3520.61,2447.87 3522.45,2442.49 3520.00,2441.65 3521.40,2437.56 3518.42,2436.55 3517.60,2438.94 3490.56,2429.69 3490.17,2431.11 3487.13,2439.40 3486.74,2440.80"/>
    <poly id="100264376" type="building.yes" color="255,230,230" fill="1" layer="-1.00" shape="3520.61,2447.87 3527.86,2450.60 3527.29,2451.95 3524.54,2456.38 3518.74,2452.95 3519.22,2451.90 3520.61,2447.87"/>
    <poly id="100264377" type="building.yes" color="255,230,230" fill="1" layer="-1.00" shape="3487.13,2439.40 3478.18,2436.13 3481.22,2427.88 3484.06,2428.92 3484.49,2427.75 3487.55,2428.86 3487.13,2430.00 3490.17,2431.11 3487.13,2439.40"/>
    <poly id="100264378" type="building.yes" color="255,230,230" fill="1" layer="-1.00" shape="3466.62,2418.59 3454.90,2414.65 3456.80,2409.00 3468.52,2412.94 3466.62,2418.59"/>
    <poly id="100264379" type="building.yes" color="255,230,230" fill="1" layer="-1.00" shape="3461.69,2430.62 3448.81,2426.71 3452.59,2414.50 3465.46,2418.42 3461.69,2430.62"/>
    <poly id="100264379#1" type="leisure.court" color="207,245,201" fill="1" layer="-2.00" shape="3461.69,2430.62 3448.81,2426.71 3452.59,2414.50 3465.46,2418.42 3461.69,2430.62"/>
    <poly id="100264381" type="building.yes" color="255,230,230" fill="1" layer="-1.00" shape="3437.99,2409.03 3448.56,2412.68 3450.79,2406.23 3444.23,2403.87 3437.99,2409.03"/>
    <poly id="100264382" type="building.yes" color="255,230,230" fill="1" layer="-1.00" shape="3444.23,2403.87 3460.39,2389.80 3454.72,2404.19 3453.61,2407.25 3450.79,2406.23 3444.23,2403.87"/>
    <poly id="100264383" type="building.yes" color="255,230,230" fill="1" layer="-1.00" shape="3441.29,2393.71 3444.56,2384.46 3439.19,2382.57 3439.53,2381.60 3435.49,2380.17 3435.14,2381.14 3429.92,2379.30 3428.78,2382.63 3426.61,2388.54 3441.29,2393.71"/>
    <poly id="100264384" type="building.yes" color="255,230,230" fill="1" layer="-1.00" shape="3397.22,2366.90 3427.91,2378.16 3426.57,2381.82 3428.78,2382.63 3426.61,2388.54 3426.28,2389.45 3423.76,2388.53 3423.47,2389.31 3422.35,2388.59 3408.40,2384.07 3393.07,2378.15 3397.22,2366.90"/>
    <poly id="100264385" type="building.yes" color="255,230,230" fill="1" layer="-1.00" shape="3408.40,2384.07 3406.64,2389.47 3405.96,2391.54 3404.22,2396.89 3418.18,2401.41 3422.35,2388.59 3408.40,2384.07"/>
    <poly id="100264388" type="building.yes" color="255,230,230" fill="1" layer="-1.00" shape="3406.64,2389.47 3393.09,2385.08 3387.12,2403.42 3398.87,2407.22 3404.17,2390.96 3405.96,2391.54 3406.64,2389.47"/>
    <poly id="100264389" type="building.yes" color="255,230,230" fill="1" layer="-1.00" shape="3385.10,2405.90 3388.46,2394.87 3361.80,2386.79 3362.15,2385.64 3359.32,2384.78 3358.56,2384.55 3358.10,2386.05 3355.56,2394.39 3358.61,2395.31 3357.90,2397.63 3385.10,2405.90"/>
    <poly id="100264390" type="landuse.grass" color="194,194,130" fill="1" layer="-3.00" shape="3379.61,2387.30 3382.10,2387.72 3383.98,2387.47 3385.94,2386.97 3387.54,2385.62 3388.70,2384.06 3389.64,2381.65 3389.82,2380.12 3389.11,2378.54 3387.24,2376.80 3384.85,2375.41 3382.10,2374.66 3377.98,2374.56 3374.91,2375.41 3373.75,2377.04 3373.23,2378.94 3373.66,2380.83 3374.29,2382.98 3375.69,2385.03 3377.45,2386.31 3379.61,2387.30"/>
    <poly id="100264396" type="building.yes" color="255,230,230" fill="1" layer="-1.00" shape="3360.04,2382.76 3362.30,2383.53 3366.09,2372.39 3362.30,2371.11 3362.00,2371.98 3345.29,2366.31 3342.15,2376.01 3344.55,2376.82 3346.82,2377.59 3347.88,2374.43 3353.55,2376.36 3352.28,2380.09 3358.18,2382.08 3356.25,2385.63 3358.10,2386.05 3358.56,2384.55 3359.32,2384.78 3360.04,2382.76"/>
    <poly id="100264400" type="building.yes" color="255,230,230" fill="1" layer="-1.00" shape="3347.30,2362.23 3375.96,2372.55 3380.02,2361.32 3366.55,2356.46 3351.40,2350.98 3348.46,2358.95 3347.30,2362.23"/>
    <poly id="100264404" type="building.yes" color="255,230,230" fill="1" layer="-1.00" shape="3348.46,2358.95 3330.21,2352.24 3327.24,2360.28 3320.94,2357.97 3322.46,2353.83 3323.89,2354.36 3325.01,2351.33 3323.33,2350.71 3324.38,2347.87 3323.85,2347.69 3324.67,2345.46 3323.12,2344.90 3324.52,2341.10 3351.40,2350.98 3348.46,2358.95"/>
    <poly id="100264409" type="building.yes" color="255,230,230" fill="1" layer="-1.00" shape="3317.20,2364.42 3319.73,2365.65 3327.94,2369.50 3331.03,2363.12 3326.37,2360.88 3325.77,2362.13 3319.72,2359.22 3317.20,2364.42"/>
    <poly id="100264417" type="building.yes" color="255,230,230" fill="1" layer="-1.00" shape="3324.52,2341.10 3313.74,2336.64 3310.55,2337.30 3300.26,2356.11 3314.51,2363.10 3316.41,2358.82 3312.75,2357.00 3313.58,2355.37 3315.26,2355.30 3316.70,2354.84 3317.75,2354.17 3318.06,2353.16 3318.16,2352.13 3317.96,2350.71 3316.64,2349.75 3317.48,2348.11 3323.33,2350.71 3324.38,2347.87 3323.85,2347.69 3324.67,2345.46 3323.12,2344.90 3324.52,2341.10"/>
    <poly id="100264417#1" type="tourism.hotel" color="207,245,201" fill="1" layer="-2.00" shape="3324.52,2341.10 3313.74,2336.64 3310.55,2337.30 3300.26,2356.11 3314.51,2363.10 3316.41,2358.82 3312.75,2357.00 3313.58,2355.37 3315.26,2355.30 3316.70,2354.84 3317.75,2354.17 3318.06,2353.16 3318.16,2352.13 3317.96,2350.71 3316.64,2349.75 3317.48,2348.11 3323.33,2350.71 3324.38,2347.87 3323.85,2347.69 3324.67,2345.46 3323.12,2344.90 3324.52,2341.10"/>
    <poly id="100264419" type="building.yes" color="255,230,230" fill="1" layer="-1.00" shape="3319.73,2365.65 3318.03,2369.13 3314.24,2376.83 3294.76,2367.29 3300.26,2356.11 3314.51,2363.10 3317.20,2364.42 3319.73,2365.65"/>
    <poly id="100264428" type="building.yes" color="255,230,230" fill="1" layer="-1.00" shape="3284.52,2395.07 3283.59,2397.06 3279.46,2395.13 3274.74,2405.20 3282.40,2408.78 3284.82,2403.60 3288.05,2396.71 3284.52,2395.07"/>
    <poly id="100264431" type="building.yes" color="255,230,230" fill="1" layer="-1.00" shape="3284.23,2409.78 3294.59,2414.77 3296.75,2410.35 3286.35,2405.37 3284.23,2409.78"/>
    <poly id="100264438" type="building.yes" color="255,230,230" fill="1" layer="-1.00" shape="3294.59,2414.77 3313.27,2423.84 3316.08,2417.95 3309.37,2414.79 3304.72,2412.49 3305.69,2410.51 3302.92,2409.17 3301.95,2411.14 3297.43,2408.95 3296.75,2410.35 3294.59,2414.77"/>
    <poly id="100264441" type="building.yes" color="255,230,230" fill="1" layer="-1.00" shape="3316.08,2417.95 3319.61,2410.49 3317.27,2409.40 3316.66,2410.70 3316.10,2411.89 3311.72,2409.82 3309.37,2414.79 3316.08,2417.95"/>
    <poly id="100265639" type="building.apartments" color="255,230,230" fill="1" layer="-1.00" shape="3276.14,2178.88 3278.57,2169.51 3276.68,2169.02 3278.07,2163.66 3283.05,2164.95 3284.05,2161.08 3278.66,2159.69 3279.86,2155.09 3286.20,2156.72 3286.40,2155.93 3293.88,2157.85 3292.30,2163.93 3296.12,2164.92 3297.51,2159.55 3324.01,2166.37 3322.51,2172.21 3327.05,2173.38 3328.37,2168.28 3332.44,2169.33 3331.79,2171.86 3338.69,2173.63 3340.65,2166.08 3336.44,2165.00 3337.31,2161.63 3334.04,2160.79 3334.37,2159.49 3324.71,2157.00 3324.49,2157.85 3320.22,2156.75 3320.36,2156.22 3318.28,2155.68 3318.49,2154.84 3308.70,2152.32 3308.45,2153.27 3302.88,2151.83 3303.17,2150.73 3293.94,2148.36 3293.69,2149.31 3283.69,2146.74 3283.37,2147.96 3277.67,2146.49 3277.40,2147.55 3276.23,2152.02 3272.65,2151.10 3271.69,2154.78 3270.42,2154.45 3268.23,2162.93 3267.09,2162.64 3263.71,2175.67 3276.14,2178.88"/>
    <poly id="100265640" type="building.yes" color="255,230,230" fill="1" layer="-1.00" shape="3269.16,2192.41 3267.08,2191.85 3266.75,2193.08 3265.03,2192.70 3257.08,2190.41 3260.75,2177.55 3273.85,2181.05 3271.85,2188.47 3270.32,2188.07 3269.16,2192.41"/>
    <poly id="100265641" type="building.yes" color="255,230,230" fill="1" layer="-1.00" shape="3257.08,2190.41 3252.15,2207.38 3260.37,2209.76 3260.77,2208.65 3261.98,2203.87 3262.61,2202.02 3265.01,2202.71 3266.50,2197.58 3263.84,2196.81 3265.03,2192.70 3257.08,2190.41"/>
    <poly id="100265642" type="building.yes" color="255,230,230" fill="1" layer="-1.00" shape="3260.77,2208.65 3281.75,2213.95 3285.71,2198.35 3280.89,2197.12 3280.59,2198.28 3275.24,2196.92 3275.52,2195.87 3270.36,2194.57 3267.64,2205.30 3261.98,2203.87 3260.77,2208.65"/>
    <poly id="100265643" type="building.yes" color="255,230,230" fill="1" layer="-1.00" shape="3272.29,2205.89 3278.33,2207.42 3279.49,2202.85 3273.45,2201.32 3272.29,2205.89"/>
    <poly id="100265645" type="building.garages" color="255,230,230" fill="1" layer="-1.00" shape="3276.04,2191.62 3287.23,2194.63 3286.75,2196.36 3293.21,2198.10 3295.13,2191.00 3277.48,2186.27 3276.04,2191.62"/>
    <poly id="100265646" type="building.garages" color="255,230,230" fill="1" layer="-1.00" shape="3296.30,2177.44 3294.14,2184.81 3298.79,2186.16 3298.28,2187.92 3301.66,2188.90 3301.14,2190.70 3306.05,2192.12 3307.83,2186.03 3305.02,2182.53 3300.88,2179.63 3296.30,2177.44"/>
    <poly id="100265647" type="building.apartments" color="255,230,230" fill="1" layer="-1.00" shape="3284.05,2213.48 3284.75,2213.68 3300.87,2218.09 3300.51,2219.41 3310.42,2222.12 3310.74,2220.97 3327.53,2225.55 3327.63,2225.20 3337.79,2227.97 3338.11,2226.84 3340.57,2227.51 3341.67,2223.52 3336.95,2219.23 3334.10,2218.45 3334.51,2216.95 3324.92,2214.34 3324.62,2215.42 3320.16,2214.19 3321.02,2211.04 3318.21,2210.28 3317.34,2213.46 3299.34,2208.54 3300.36,2204.83 3296.55,2203.79 3296.40,2204.37 3295.54,2207.49 3291.51,2206.40 3291.86,2205.12 3286.73,2203.72 3284.05,2213.48"/>
    <poly id="100265650" type="building.apartments" color="255,230,230" fill="1" layer="-1.00" shape="3341.67,2223.52 3344.16,2224.20 3344.92,2221.45 3345.58,2221.63 3346.38,2218.70 3348.96,2219.40 3352.54,2206.36 3349.28,2205.48 3350.09,2202.52 3350.82,2202.72 3351.94,2198.64 3353.27,2199.01 3355.94,2189.28 3354.29,2188.84 3358.62,2173.32 3349.17,2170.73 3347.77,2175.82 3348.95,2176.14 3347.83,2180.22 3344.95,2179.43 3344.25,2181.98 3347.16,2182.78 3342.57,2199.49 3339.16,2198.56 3338.07,2202.52 3341.29,2203.40 3336.95,2219.23 3341.67,2223.52"/>
    <poly id="100265653" type="building.yes" color="255,230,230" fill="1" layer="-1.00" shape="3359.10,2172.01 3357.27,2171.43 3359.56,2164.27 3368.71,2167.17 3366.40,2174.35 3359.10,2172.01"/>
    <poly id="100265656" type="landuse.grass" color="194,194,130" fill="1" layer="-3.00" shape="3352.54,2206.36 3353.91,2206.79 3355.35,2205.31 3358.90,2204.92 3369.21,2176.32 3366.00,2175.17 3358.62,2173.32 3354.29,2188.84 3355.94,2189.28 3353.27,2199.01 3351.94,2198.64 3350.82,2202.72 3350.09,2202.52 3349.28,2205.48 3352.54,2206.36"/>
    <poly id="100265657" type="amenity.parking" color="184,184,179" fill="1" layer="-1.00" shape="3331.95,2193.38 3341.13,2195.60 3343.45,2186.06 3333.95,2183.98 3331.95,2193.38"/>
    <poly id="100265658" type="amenity.parking" color="184,184,179" fill="1" layer="-1.00" shape="3324.97,2206.19 3322.61,2212.44 3335.01,2214.71 3337.19,2204.75 3330.12,2201.97 3328.55,2204.48 3324.97,2206.19"/>
    <poly id="100265659" type="amenity.parking" color="184,184,179" fill="1" layer="-1.00" shape="3329.09,2179.76 3328.43,2188.38 3324.32,2187.58 3318.10,2184.74 3312.50,2180.63 3316.70,2175.27 3318.20,2176.47 3323.47,2178.88 3329.09,2179.76"/>
    <poly id="100265660" type="amenity.parking" color="184,184,179" fill="1" layer="-1.00" shape="3314.27,2173.36 3311.42,2177.19 3308.32,2175.53 3300.85,2175.64 3299.70,2169.88 3304.46,2169.29 3309.08,2169.10 3312.37,2169.98 3314.27,2173.36"/>
    <poly id="100265661" type="amenity.parking" color="184,184,179" fill="1" layer="-1.00" shape="3283.32,2181.19 3279.24,2180.21 3276.14,2178.88 3278.57,2169.51 3287.59,2172.30 3285.24,2174.61 3283.46,2177.67 3283.32,2181.19"/>
    <poly id="100265663" type="landuse.grass" color="194,194,130" fill="1" layer="-3.00" shape="3277.40,2147.55 3270.64,2145.87 3271.74,2141.94 3276.25,2139.49 3290.74,2143.76 3312.01,2149.70 3342.59,2158.43 3340.65,2166.08 3336.44,2165.00 3337.31,2161.63 3334.04,2160.79 3334.37,2159.49 3324.71,2157.00 3324.49,2157.85 3320.22,2156.75 3320.36,2156.22 3318.28,2155.68 3318.49,2154.84 3308.70,2152.32 3308.45,2153.27 3302.88,2151.83 3303.17,2150.73 3293.94,2148.36 3293.69,2149.31 3283.69,2146.74 3283.37,2147.96 3277.67,2146.49 3277.40,2147.55"/>
    <poly id="100265664" type="landuse.grass" color="194,194,130" fill="1" layer="-3.00" shape="3284.14,2216.67 3284.75,2213.68 3300.87,2218.09 3300.51,2219.41 3310.42,2222.12 3310.74,2220.97 3327.53,2225.55 3327.63,2225.20 3337.79,2227.97 3336.92,2232.35 3284.14,2216.67"/>
    <poly id="100265665" type="amenity.parking" color="184,184,179" fill="1" layer="-1.00" shape="3304.13,2201.12 3306.05,2192.12 3301.14,2190.70 3298.15,2193.72 3293.21,2198.10 3291.44,2200.28 3293.01,2203.67 3296.40,2204.37 3296.55,2203.79 3299.61,2201.09 3304.13,2201.12"/>
    <poly id="100266485" type="building.yes" color="255,230,230" fill="1" layer="-1.00" shape="2965.37,2097.72 2981.55,2108.40 2984.55,2098.34 2976.16,2092.68 2976.84,2091.95 2971.65,2088.74 2965.37,2097.72"/>