<?xml version="1.0" encoding="UTF-8"?>

<!-- generated on 09/27/18 15:53:11 by SUMO duarouter Version 0.32.0
<?xml version="1.0" encoding="UTF-8"?>

<configuration xmlns:xsi="http://www.w3.org/2001/XMLSchema-instance" xsi:noNamespaceSchemaLocation="http://sumo.dlr.de/xsd/duarouterConfiguration.xsd">

    <input>
        <net-file value="osm.net.xml"/>
        <route-files value="osm.passenger.trips.xml"/>
    </input>

    <output>
        <output-file value="osm.passenger.rou.xml"/>
        <alternatives-output value="osm.passenger.rou.alt.xml"/>
    </output>

    <processing>
        <ignore-errors value="true"/>
    </processing>

    <time>
        <begin value="0"/>
        <end value="3600.0"/>
    </time>

    <report>
        <no-warnings value="true"/>
        <no-step-log value="true"/>
    </report>

</configuration>
-->

<routes xmlns:xsi="http://www.w3.org/2001/XMLSchema-instance" xsi:noNamespaceSchemaLocation="http://sumo.dlr.de/xsd/routes_file.xsd">
    <vType id="passenger" speedFactor="normc(1.00,0.10,0.20,2.00)" vClass="passenger"/>
    <vehicle id="veh0" type="passenger" depart="0.00" departLane="best">
        <route edges="25594977#0 25594977#1 494040459#3 494040459#5 494040459#7 39025893#0 39025893#1 253354182#0 253354182#2 253354182#3 253354182#4 253354178#0 253354178#2 11266299 235155193 166369347#0 166369347#1 550552856 550552878 4680885 211342282#1 -17691742#4 -17691742#3 -17691742#2 -17691742#1 -17691742#0 -5044805 166369924 22813886#0 22813886#1 201491587#0 201491587#2 201491584#0 201491584#1 501181888#1 15693515#0 15693515#1 15693581#0 -15693581#0"/>
    </vehicle>
    <vehicle id="veh1" type="passenger" depart="1.03" departLane="best">
        <route edges="-404014015#7 404014015#7 4082714#0 4082714#1 404014012 404014013 8307544#0 100968809 25114332#1 327298839 26709532#0 26709532#1 497287414#1 497287414#2 -4366227#5 -4366227#2 -4366227#1 -4366227#0 18309854 18310162#0 18310162#1 8591115#1 4366262#0 4366262#1 4366262#4 4366262#5 511789325 -38809706#6 -38809706#5 -38809706#3 -38809706#2 -38809706#1 -38809706#0 38809707#0 38809707#1 -38809707#1"/>
    </vehicle>
    <vehicle id="veh2" type="passenger" depart="2.06" departLane="best">
        <route edges="36775550#4 43573215#0 500005092 501181888#3 501181888#4 26072429#0 26072429#1 26072429#2 59374120#0 59374120#2 59374120#3 -26072428#0 -188128548#6 -48379506#2 -48379506#1 -73427436#1 -73427436#0 -19207808#3 -140463816#3 -140463816#2 -140463816#1 4265040#2 166482670#0 47009515#0 47009515#2 311561498#0 2466940#0 2466940#1 2466940#2 2466940#3 246802103 -534024686#3 -534024686#2 30073399 30073402#2 30073402#3 30073404#0 30073404#1 30097638"/>
    </vehicle>
    <vehicle id="veh3" type="passenger" depart="3.09" departLane="best">
        <route edges="55697657#1 -55697657#1 -4366264#1 -4366264#0 -13851546#1 -13851546#0 4366262#0 4366262#1 4366262#4 4366262#5 511789325 2372215#0 2372215#1 2372215#2 -83358163#5 27373437 253356877 288511764 197194665#1 197194665#2 197194665#5 253355783#0 253355783#1 4370210#0 4370210#3 103779300 17513368#0 17513368#1 17513368#2 586982067 108848357#0 108848357#1 108848357#2 26362792#0 26362792#2 26362792#4 47048375#0 16646846 2387302 365198126#1 365198126#2 16295658#0 16295658#1 16295658#3 -16295492 8179132#0 8179132#1 8179132#2 8179132#3 8179132#4 8179132#5 8179132#6 99961324#0 99961324#1 99961324#2 25359286#2 30286837#0 30286837#1 30286837#2 18942160 18942163#1 18942163#2 18942163#3 18942163#4 23180860#4 23180860#5 23180860#6 23180860#8 23180860#10 23180860#11 23180860#12 23180860#13 23180860#14 250754905#0 2418032#0 313842643 313842642 598147043 598147041#0 598147041#1 598147041#2 -202053019#8 -202053019#5 -23167685#2 -23167685#1 -23167685#0"/>
    </vehicle>
    <vehicle id="veh4" type="passenger" depart="4.12" departLane="best">
        <route edges="-77103500 381871425#6 -199515776#2 -4957359#3 -4957359#0 -237559984#2 -237559984#1 -30727695#1 -30727695#0 30727694#0 246645453 -230843465 -196819984 -237559987#14 -237559987#12 -237559987#11 30691665 -181799764#5 -181799764#3 -181799764#2 -181799764#0 -598147041#4 -598147041#1 -598147041#0 -598147043 -313842642 313842644 -2418032#1 -250754905#1 -23180860#14 -23180860#13 -23180860#12 -23180860#11 -23180860#10 -23180860#8 -23180860#6 -23180860#5 -23180860#4 -18942163#4 -18942163#3 -18942163#2 -18942163#1 -18942160 -30286837#2 -30286837#1 -30286837#0 -557694267#1 -557694267#0 -557694269#1 -557694269#0 -30243098#0 30243097#0 30243097#1 365198127 238913756#0 238913756#1 238913756#2 -25359279 16295338#12 -16295338#12"/>
    </vehicle>
    <vehicle id="veh5" type="passenger" depart="5.15" departLane="best">
        <route edges="-30583367 8386793#7 -2466941#7 -2466941#6 -2466941#5 -2466941#4 -2466941#2 -2466941#1 -237396923 -564115143#1 -374047987#5 -374047987#3 -374047987#2 -374047987#1 -374047987#0 -564115139 -237396922#1 -237396755#0 -564115135 -237396756 -99961322#3 -99961322#2 -99961322#1 -47048375#1 -26362792#5 -26362792#3 -26362792#0 -108848357#2 -108848357#1 26362798#0 26362798#1 -4081005#1 -4081005#0 -4081006#4 -4081006#3 -4081006#2 -4081006#1 -4081006#0 -224184406#2 -224184406#1 -224184406#0 -224184403#2 -224184403#1 -224184403#0 -224184409#1 -224184409#0 -253356188#3 -253356188#2 -253356189#1 -331073466 -47048977 -48379511#2 48379511#1 552723174#1 502802545 91524299#1 91524299#2 -19831097 19831097"/>
    </vehicle>
    <vehicle id="veh6" type="passenger" depart="6.17" departLane="best">
        <route edges="-15693515#2 -15693515#1 -15693515#0 501181888#3 501181888#4 36775548#0 36775548#1 43573215#0 43573215#3 43573215#5 43573215#6 315631025#0 315631025#1 234289105#1 41518097 591922929 591922922#0 591922922#2 36814928 367808661 367808660 235993418 380467036#0 61904421#0 61904421#1 61904421#3 49932192 234575099#0 234575099#2 234575099#4 39035445 550552885 438321535 49932193 49932196#0 49932196#1 -3127736#2 -3127736#1"/>
    </vehicle>
    <vehicle id="veh7" type="passenger" depart="7.20" departLane="best">
        <route edges="26294019#0 26294019#1 534024689#3 199518163#0 534024692#3 534024692#4 146590618 199515248#0 199515248#1 199515249#0 199515249#2 4957359#0 4957359#1 199515776#0 232718096#0"/>
    </vehicle>
    <vehicle id="veh8" type="passenger" depart="8.23" departLane="best">
        <route edges="-30691386 257005240#0 257005240#1 -181799764#3 -181799764#2 -181799764#0 -202053019#8 -202053019#5 -202053019#4 -202053019#3 -202053019#2 -202053019#1 -202053019#0 -202053018 -534024688#5 -534024688#4 -534024688#3 -534024688#2 -534024688#1 -534087835#9 -534087835#8 -534087835#7 -534087835#6 -534087835#5 -534087835#4 -534087835#3 -534087835#2 -534087835#1 -534087835#0 -197881958 -31324122#4 -31324122#3 -31324122#2 -31324122#1 -31324122#0 2415103#1 2415103#3 201731834 38907609#0 38907609#2 210335525#0 210335525#1 210335525#2 203982569#0 197477212 203981674 48379490 233811550#0 233811550#1 2467171#0 2467171#1 41518094#0 41518094#3 41518094#4 41518094#5 -160532844#6 -160532844#4 -160532844#3 -160532844#2 -234295188#3 -234295188#0 -197476980#5 -197476980#4 -197476980#3 -197476980#2 -197476980#0 -75687499#3 -75687499#1 330341#0 330341#1 330341#2 330341#3 234289724#4 75687497 316805865 109850046#1 109850046#2 331357#2 234296720 234296718#2 41518097 591922929 591922922#0 591922922#2 36814928 367808661 367808660 235993418 380467036#0 61904421#0 61904421#1 61904421#3 49932192 234575099#0 234575099#2 234575099#4 38060076#0 38060076#1 38060076#3 17513377 561132267 17513378#0 17513378#1 292801791#0 41910721#1 311804826#0 311804826#2 24936218#0 24936218#1 24936216#0"/>
    </vehicle>
    <vehicle id="veh9" type="passenger" depart="9.26" departLane="best">
        <route edges="4340906#3 -4340906#3 4340908#0 -201756812#9 -201756812#8 -201756812#6 -201756812#4 -201756812#2 -201756812#0 201757213 2428140#0 2428140#1 2428140#2 2428140#4 205586178#0 205586178#1 205586178#2 -609061152#1 41518094#0 41518094#3 41518094#4 41518094#5 -160532844#6 -160532844#4 -160532844#3 -160532844#2 4390227#0 4390227#3 18942157 4390272 -120324572"/>
    </vehicle>
    <vehicle id="veh10" type="passenger" depart="10.29" departLane="best">
        <route edges="4332859#2 4332859#3 4332859#5 198658661#0 198658661#1 198658661#2 198658661#3 47048975#0 47048975#1 47048975#2 47048972 35803710#0 35803710#1 35803710#2 35803710#3 35803710#4 26780887#0 26780887#1 497287410#1 497287415 26709508 26709532#0 26709532#1 497287414#1 497287414#2 497287414#5 4366295#0 4366295#1 211950233#0 211950233#2 586151544#1 586151544#2 41383226#1 41383226#2 41383226#3 41383226#5 -251642743#2 -251642743#1 -251642743#0 -41383223 39025893#0 39025893#1 253354182#0 253354182#2 253354182#3 253354182#4 253354178#0 253354178#2 11266299 235155193 166369347#0 166369347#1 550552856 550552878 4680885 211342282#1 -17691742#4 -17691742#3 -17691742#2 -17691742#1 -17691742#0 -5044805 -5044806#1 -5044806#0 -16629512#1 -16629512#0 2466941#2 2466941#4 2466941#5 2466941#6 2466941#7 2466941#9 2466941#10 2466941#11 2466941#12 47048136#0 47048136#3 47048136#4 47048136#5 47048136#6 47009514#0 47009514#1 166482670#0 47009515#0 47009515#2 311561498#0 2466940#0 2466940#1 2466940#2 2466940#3 246802103 -534024686#3 -534024686#2 -534024686#1 -534024686#0 2415176#0 2415176#1 -311561500#2 311561500#2"/>
    </vehicle>
    <vehicle id="veh11" type="passenger" depart="11.32" departLane="best">
        <route edges="-4711429#1 -4711429#0 2372214#3 -18309854 4366227#0 4366227#1 4366227#2 -4281459 4680844#1 4680844#2 -497287422#0 129377897 26709508 -497287416 -25114332#1 -25114332#0 -26785612#24 -26785612#23 -26785612#22 -26785612#21 -26785612#20 -26785612#19 -26785612#18 -26785612#17 -26785612#16 -26785612#15 -26785612#13 -26785612#12 -26785612#11 -26785612#10 -26785612#9 -26785612#8 -26785612#6 -26785612#4 -26785612#3 -26785612#2 -26785612#1 -26785612#0"/>
    </vehicle>
    <vehicle id="veh12" type="passenger" depart="12.35" departLane="best">
        <route edges="7744552 198658661#0 198658661#1 198658661#2 198658661#3 47048975#0 47048975#1 47048975#2 47048972 35803710#0 35803710#1 35803710#2 35803710#3 35803710#4 26780887#0 26780887#1 497287410#1 497287415 26709508 26709532#0 26709532#1 497287414#1 497287414#2 497287414#5 226098089 38748146#0 -253360360#1 -253360360#0 -47048979 51954143 253360359 48379510 140635085#0 140635085#1 48379511#1 47048977 331073466 -331073466 -19202581 371311055#0 4370210#0 4370210#3 103779300 17513368#0 17513368#1 17513368#2 586982067 108848357#0 108848357#1 108848357#2 26362792#0 26362792#2 26362792#4 47048375#0 99961322#1 99961322#2 99961322#3 99961322#4 237396757 371312478#1 237396755#1 237396922#2 -564115139"/>
    </vehicle>
    <vehicle id="veh13" type="passenger" depart="13.38" departLane="best">
        <route edges="-23163539 -26839668#1 -26839668#0 19092809#1 8386773#0 8386773#1 8386773#2 207115848 8386774#0 8386774#1 8386774#2 166369347#1 550552856 550552878 4680885 211342282#1 -17691742#4 -17691742#3 -17691742#2 -17691742#1 -17691742#0 -5044805 -5044806#1 -5044806#0 -16629512#1 -16629512#0 2466941#2 2466941#4 2466941#5 2466941#6 2466941#7 2466941#9 2466941#10 2466941#11 2466941#12 47048136#0 47048136#3 6578219#0 6578219#1 6578219#3 6578219#4 4884668#1 4884668#2 4884668#3 4884668#4 4884668#5 4884668#6 4884668#7 4884668#8 18942158#2 18942158#3 -99961288#5 -99961288#4 -99961288#3 -99961288#1 2425502#0 2425502#1 99961290#1 -332579417#1 -332579417#0 -332579402 -30198461#0 202053018 202053019#0 202053019#1 202053019#2 202053019#3 202053019#4 202053019#5 202053019#6 181799764#0 181799764#1 181799764#3 -257005240#1 -257005240#0 30691386 -237559987#2 -237559987#1"/>
    </vehicle>
    <vehicle id="veh14" type="passenger" depart="14.41" departLane="best">
        <route edges="48379506#1 48379506#2 -188128548#4 -188128548#3 -188128548#2 -2466941#14 -2466941#11 -2466941#10 -2466941#9 -2466941#7 -2466941#6 -2466941#5 -2466941#4 -2466941#2 16629512#0 16629512#1 564115147#1 5044806#1 166369924 17691742#0 17691742#1 17691742#2 17691742#3 17691742#4 211342281#0 108285811 38060075 -550552878 -550552856 -166369347#1 -166369347#0 -235155193 -11266299 46102871#0 46102871#1 253354179#0 552732632#0 552732632#1 552732632#2 552732632#3 552732632#4 552727681#0 552727681#1 552727681#2 253353304#0 253353304#1 253353304#2 253353304#3 253353304#4 166369355 253352352#0"/>
    </vehicle>
    <vehicle id="veh15" type="passenger" depart="15.44" departLane="best">
        <route edges="19742815 -19742815 210335525#0 210335525#1 210335525#2 203982569#0 197477212 203981674 48379490 233811550#0 233811550#1 2467171#0 2467171#1 41518094#0 41518094#3 41518094#4 41518094#5 -160532844#6 -160532844#4 -160532844#3 -160532844#2 -234295188#3 -234295188#0 -197476980#5 -197476980#4 -197476980#3 -197476980#2 -197476980#0 -75687499#3 -75687499#1 330341#0 330341#1 330341#2 330341#3 234289724#4 75687497 316805865 109850046#1 109850046#2 331357#2 234296720 234296718#2 41518097 591922929 591922922#0 591922922#2 36814928 367808661 367808660 235993418 380467036#0 61904421#0 61904421#1 61904421#3 49932192 234575099#0 234575099#2 234575099#4 38060076#0 38060076#1 38060076#3 17513377 561132267 17513378#0 17513378#1 292801791#0 -41518100#2 -4253988#2 161652141#0 161652141#3 161652141#5 161652141#6 161652141#8 161652141#9 161652141#10 161652141#11 161652141#12 8256233#0 8256233#1 8256233#2"/>
    </vehicle>
    <vehicle id="veh16" type="passenger" depart="16.47" departLane="best">
        <route edges="-55697656 -4366264#0 -13851546#1 -13851546#0 4366262#0 4366262#1 4366262#4 4366262#5 511789325 2372215#0 2372215#1 2372215#2 4252251#0 226098091#0 226098091#1 48379513#1 41383228 494040460#1 494040460#2 494040459#2 494040459#3 494040459#5 494040459#7 39025893#0 39025893#1 253354182#0 253354182#2 253354182#3 253354182#4 253354178#0 253354178#2 11266299 235155193 166369347#0 166369347#1 550552856 550552878 4680885 270535417 -206996916 -206996918#3 -206996918#2 -206996918#1 -206996918#0 -207107599#2 -207107599#1 -207107599#0 380467041 380467044#0 234572145 17279601#0 17279601#2 17279601#3 449113134 449113135#0 41518099#0 2509157 379356932 89991893 197476574 197476947#0 197476948#0 89992219#0 89992219#1 591924017#0 75687499#0 75687499#2 197476980#0 197476980#2 197476980#3 197476980#4 197476980#5 234295188#0 234295188#1 160532844#0 160532844#3 160532844#4 160532844#5 -41518094#5 -41518094#4 -41518094#3 -41518094#2 609061152#0 609061150 201759853#1 201759853#2 496742426 496742428 201760799 -154540881#3 -154540881#1 -154540881#0 -154540890 2498997#2 2498997#3 34083180 -29078577#2 -29078577#0 -2483869 -26291686#3 -26291686#2 -26291686#1 -26291686#0 8265571#0 8265571#1 205686400#0 235757579#0 235757577"/>
    </vehicle>
    <vehicle id="veh17" type="passenger" depart="17.49" departLane="best">
        <route edges="4536595#1 4536595#2 179642843 246645453 -230843465 -196819984 -237559987#14 -237559987#12 -237559987#11 30691665 -181799764#5 -181799764#3 -181799764#2 -181799764#0 -598147041#4 -598147041#1 -598147041#0 -598147043 -313842642 313842644 -2418032#1 250754905#2 250754903#0 250754903#1 -2430956#13 -2430956#12 -2430956#11 -2430956#10 -2430956#9 -2430956#8 -2430956#7 -2430956#6 202053028#6 99961288#1 99961288#3 99961288#4 99961288#5 30080799 311561501#0 -4884668#8 -4884668#7 -4884668#6 -6578208 -4884668#3 -4884668#2 99961287#4 99961287#6 99961287#7 -47048136#6 19207808#0 19207808#1 19207808#2 19207808#3 73427436#0 73427436#1 48379506#1 48379506#2 188128548#6 26072428#0"/>
    </vehicle>
    <vehicle id="veh18" type="passenger" depart="18.52" departLane="best">
        <route edges="49932190#0 49932190#1 49932190#2 561130616#2 49932192 234575099#0 234575099#2 234575099#4 38060076#0 38060076#1 38060076#3 17513377 561132267 17513378#0 17513378#1 292801791#0 -41518100#2 -4253988#2 161652141#0 161652141#3 161652141#5 161652141#6 161652141#8 161652141#9 161652141#10 161652141#11 161652141#12 161652141#13 161652141#16 396327477#0 396327478#0 396327478#1 396327478#2 396325643#0 380682394 211956507#0 211956507#1 2372075#0 2372075#2 2372075#4 2372075#6 3996990#0 3996990#2 -558603482#5 -558603482#4 -558603482#2 -4366227#5 -4366227#2 -4366227#1 -4366227#0 -4366252#1 -4366252#0 497287422#5 -24442732 24442742#1"/>
    </vehicle>
    <vehicle id="veh19" type="passenger" depart="19.55" departLane="best">
        <route edges="30686960#2 -30686960#2 -30686960#1 -30686960#0 -16297002#0 -237559987#12 -237559987#11 30691665 -181799764#5 -181799764#3 -181799764#2 -181799764#0 -598147041#4 -598147041#1 -598147041#0 -598147043 -313842642 313842644 -2418032#1 -250754905#1 -23180860#14 -23180860#13 -23180860#12 -23180860#11 -23180860#10 -23180860#8 -23180860#6 -23180860#5 -23180860#4 -18942163#4 -18942163#3 -18942163#2 -18942163#1 -18942160 -30286837#2 -30286837#1 -30286837#0 -25359286#2 -25359286#0 -99961324#1 -99961324#0 -8179132#6 -8179132#5 -8179132#4 -8179132#3 -8179132#2 -8179132#1 -8179132#0 16295492 -16295658#3 -16295658#1 -16295658#0 -365198126#2 -365198126#1 -365198126#0 -16646846 -47048375#1 -26362792#5 -26362792#3 -26362792#0 -108848357#2 -108848357#1 -108848357#0 -586982067 -17513368#2 -17513368#1 -17513368#0 -103779300 -4370210#3 -4370210#2 37371128 45189945 327282307 371311786#0 17691735#0 17691735#2 17691735#3 17691735#4 -17691735#4"/>
    </vehicle>
    <vehicle id="veh20" type="passenger" depart="20.58" departLane="best">
        <route edges="-31324122#1 -31324122#0 2415103#1 2415103#3 201731834 38907609#0 38907609#2 210335525#0 210335525#1 210335525#2 203982569#0 197477212 203981674 48379490 233811550#0 233811550#1 2467171#0 2467171#1 41518094#0 41518094#3 41518094#4 41518094#5 -160532844#6 -160532844#4 -160532844#3 -160532844#2 -234295188#3 -234295188#0 -197476980#5 -197476980#4 -197476980#3 -197476980#2 -197476980#0 -75687499#3 -75687499#1 330341#0 330341#1 330341#2 330341#3 234289724#4 75687497 316805865 109850046#1 109850046#2 331357#2 234296720 234296718#2 41518097 591922929 591922922#0 591922922#2 36814928 367808661 367808660 380467039#0 380467038#0 380467038#1 380467045 207108043 207107599#0 207107599#1 207107599#2 207107599#5 206996918#1 206996918#2 206996918#3 206996918#4 96885307#1 108285811 38060075 -550552878 -550552856 -166369347#1 -166369347#0 -235155193 -11266299 46102871#0 46102871#1 253354181#0 253354181#2 253354181#3 -39025893#1 -39025893#0 41383223 251642743#0 251642743#1 251642743#2 4680883#0 4680883#1 396325643#0 380682394 211956507#0 211956507#1 2372075#0 2372075#2 2372075#4 2372075#6 3996990#0 3996990#2 602799892#0 602799892#1 602799892#2 602799892#3 497287409 224186264 497287421 497287413 497287422#0 -4680844#2 -4680844#1"/>
    </vehicle>
    <vehicle id="veh21" type="passenger" depart="21.61" departLane="best">
        <route edges="-207807963#3 -207807963#2 38876078#0 17983300 174660853#1 174660853#2 -174660854#1 -174660854#0 -2417071#3 -2417071#2 -2417071#1 -2417071#0 22780529 18122226#0 18122226#1 18122226#2 18122226#3 18122226#4 -26291686#3 -26291686#2 -26291686#1 -26291686#0 8265571#0 8265571#1 193958142#0 193958142#1 193958142#2 6010084 -26372299#6 -26372299#5 6010071#0 6010071#1 404097028#0 -404097028#0"/>
    </vehicle>
    <vehicle id="veh22" type="passenger" depart="22.64" departLane="best">
        <route edges="-235757577 235757579#1 404097031 573266105#0 573266105#1 471318670#1 471651023#0 471651023#1 480770669 -205686400#0 193958142#0 193958142#1 193958142#2 26291687#1 26291687#2 26291687#3 26291687#4 193958143 -534022322#1 -534022322#0 4370468#0 4370468#1 232717964#1 4370466#3 -4370466#3"/>
    </vehicle>
    <vehicle id="veh24" type="passenger" depart="24.70" departLane="best">
        <route edges="-534024689#2 -534024689#1 -534087836#2 -534087836#0 -372683468#4 -372683468#3 -372683468#2 -372683468#1 -372683468#0 -31324113#5 -31324113#3 -31324113#2 -31324113#1 201731834 38907609#0 38907609#2 210335525#0 210335525#1 210335525#2 203982569#0 197477212 203981674 -280251139 -48379493 -47009633#4 -47009633#3 -47009633#2 -47009633#1 -534024686#8 157467037 19742812#0 19742812#1 311561499#0 311561499#1 -47009515#2 -47009515#1 -166482670#1 -47009514#1 -47009514#0 -47048136#6 -47048136#5 -47048136#4 -47048136#3 -47048136#2 -2466941#14 -2466941#11 -2466941#10 -2466941#9 -8386793#7 34293998 246901382 246901383 8386795#1 34293999 -34293999"/>
    </vehicle>
    <vehicle id="veh25" type="passenger" depart="25.73" departLane="best">
        <route edges="-38893516 -26291686#2 -26291686#1 -26291686#0 8265571#0 8265571#1 193958142#0 -34063830#2 -34063830#1 26294018#0 26294018#1 26294018#2 26294018#3 26294019#0 26294019#1 534024689#3 199518163#0 534024692#3 26374061#0 26374061#1 623074134#1"/>
    </vehicle>
    <vehicle id="veh26" type="passenger" depart="26.76" departLane="best">
        <route edges="26292721#6 -26291687#4 -26291687#3 -26291687#2 -26291687#1 -193958142#2 -193958142#1 -34063830#2 -34063830#1 26294018#0 26294018#1 26294018#2 26294018#3 26294019#0 26294019#1 27267644#0 27267644#1 27267644#2 27267644#3 371906799#0 371906799#2 371906799#3 -2418095#3 -2418095#1 -2418095#0 534024688#1 534024688#2 534024688#3 534024688#4 534024688#5 30198461#0 332579402 332579417#0 332579417#1 -250754903#4 -250754903#3 -2430956#13 -2430956#12 -2430956#11 -2430956#10 -2430956#9 -2430956#8 -2430956#7 -2430956#6 202053028#6 99961288#1 99961288#3 99961288#4 99961288#5 30080799 311561501#0 -4884668#8 -4884668#7 -4884668#6 -6578208 -4884668#3 -4884668#2 -4884668#1 -4884668#0 386356201 -238913756#8 8386786#0 16295338#0 16295338#1 16295338#2 16295338#3 16295338#4 16295338#5 25359277"/>
    </vehicle>
    <vehicle id="veh27" type="passenger" depart="27.79" departLane="best">
        <route edges="-26785810#0 -26709645#0 -9195640 -4680832#4 -4680832#3 -4680832#1 -4680832#0 -602799890#2 -602799890#1 -602799890#0 -558603482#5 -558603482#4 -558603482#2 497287414#5 226098089 38748146#0 -253360360#1 -253360360#0 -47048979 51954143 253360359 48379510 140635085#0 140635085#1 48379511#1 552723174#1 502802545 91524299#1 91524299#2 355162536#0"/>
    </vehicle>
    <vehicle id="veh28" type="passenger" depart="28.82" departLane="best">
        <route edges="-26709645#4 26709645#4 9195642#0 9195642#1 9195642#2 224188120#0 224188120#2 224188123#0 224188123#1 224188581#1 4257245 220412585#0 220412585#1 211959862 211956502 211956507#0 211956507#1 2372075#0 2372075#2 4367366#1 4367366#2 41383226#2 41383226#3 41383226#5 -251642743#2 -251642743#1 -251642743#0 -41383223 39025893#0 39025893#1 253354182#0 253354182#2 253354182#3 253354182#4 253354178#0 253354178#2 11266299 235155193 166369347#0 166369347#1 550552856 550552878 4680885 270535417 -206996916 -206996918#3 -206996918#2 -206996918#1 -206996918#0 -207107599#2 -207107599#1 -207107599#0 380467041 380467044#0 234572145 17279601#0 17279601#2 17279601#3 449113134 449113135#0 41518099#0 2509157 379356932 89991893 197476574 197476947#0 197476948#0 89992219#0 89992219#1 591924017#0 75687499#0 75687499#2 197476980#0 197476980#2 197476980#3 197476980#4 197476980#5 234295188#0 234295188#1 160532844#0 160532844#3 160532844#4 160532844#5 2509158#1 154540891#0 154540891#1 233811586#1 233811579 4484039#0 280251141 233811549#0 233811549#1 233811549#3 233811549#4 233811549#5 210335526#0 156201849#0 31324113#1 31324113#2 31324113#3 31324113#5 372683468#0 372683468#1 372683468#2 372683468#3 372683468#4 534087836#0 534087836#1 534024689#1 534024689#2 534024689#3 199518163#0 534024692#3 534024692#4 146590618 199515248#0 199515248#1 199515249#0 199515249#2 201487146#0 201487146#1 199514512#0 199514512#1 538314349#0 538314349#1 538314349#2 230843110#0 230843110#1 230843110#2 230843110#3 230843110#4 230843110#5 -4536592#3 -4536592#2 -4536592#0 -591934082#4 -591934082#3 -591934082#2 -591934082#1 -591934082#0 -7742056#1 -7742056#0"/>
    </vehicle>
    <vehicle id="veh29" type="passenger" depart="29.84" departLane="best">
        <route edges="217313923#1 220412585#0 220412585#1 211959862 211956502 211956507#0 211956507#1 2372075#0 2372075#2 4367366#1 4367366#2 41383226#2 41383226#3 41383226#5 -251642743#2 -251642743#1 -251642743#0 -41383223 39025893#0 39025893#1 253354182#0 253354182#2 253354182#3 253354182#4 253354178#0 253354178#2 11266299 235155193 166369347#0 166369347#1 550552856 550552878 4680885 211342282#1 -17691742#4 -17691742#3 -17691742#2 -17691742#1 -17691742#0 -5044805 -5044806#1 -5044806#0 -16629512#1 -16629512#0 2466941#2 2466941#4 2466941#5 8386795#0 8386795#1 8386795#3 -238913649#2 -238913649#1 -30199824#6 -30199824#4 -30199824#3 -30199824#2 -30199824#1 30199824#1"/>
    </vehicle>
    <vehicle id="veh30" type="passenger" depart="30.87" departLane="best">
        <route edges="4711430#3 -566143789#1 -566143789#0 -502802553 253356877 288511764 197194665#1 197194665#2 197194665#5 253355783#0 253355783#1 37371128 45189945 327282307 371311786#0 371311786#1 371311786#2 108791853#1 253350834 253350830#1 253350830#2 253350830#3 253350830#4 166369353 235070295#1 235070295#2 253354178#2 11266299 235155193 166369347#0 166369347#1 550552856 550552878 4680885 270535417 -206996916 -206996918#3 -206996918#2 -206996918#1 -206996918#0 -207107599#2 -207107599#1 -207107599#0 380467041 380467044#0 234572145 17279601#0 17279601#2 17279601#3 449113134 449113135#0 41518099#0 2509157 379356932 89991893 197476574 197476947#0 197476948#0 89992219#0 89992219#1 591924017#0 75687499#0 75687499#2 197476980#0 197476980#2 197476980#3 197476980#4 197476980#5 234295188#0 234295188#1 -166482547#2 -41518095#4 -41518095#3 -41518095#2 41518095#2"/>
    </vehicle>
    <vehicle id="veh31" type="passenger" depart="31.90" departLane="best">
        <route edges="-313583263#1 -313583263#0 -2415184#2 -2415184#1 -2415184#0 23180860#2 23180860#4 23180860#5 23180860#6 23180860#8 23180860#10 23180860#11 23180860#12 23180860#13 23180860#14 250754905#0 250754905#2 250754903#0 250754903#1 250754903#3 250754903#4 -332579417#1 -332579417#0 -332579402 -30198461#0 -534024688#5 14351598#0 14351598#1 14351598#2 14351598#3 16296979#0 -16296979#0"/>
    </vehicle>
    <vehicle id="veh32" type="passenger" depart="32.93" departLane="best">
        <route edges="-4340913 4340909#1 -201756812#13 -201756812#12 -201756812#11 -201756812#9 -201756812#8 -201756812#6 -201756812#4 -201756812#2 -201756812#0 201757213 2428140#0 2428140#1 2428140#2 2428140#4 205586178#0 205586178#1 205586178#2 -609061152#1 41518094#0 41518094#3 41518094#4 41518094#5 -160532844#6 -160532844#4 -160532844#3 -160532844#2 -234295188#3 -234295188#0 -197476980#5 -197476980#4 -197476980#3 -197476980#2 -197476980#0 -75687499#3 -75687499#1 330341#0 330341#1 330341#2 330341#3 234289724#4 75687497 316805865 109850046#1 109850046#2 331357#2 234296720 234296718#2 41518097 591922929 591922922#0 591922922#2 36814928 367808661 367808660 380467039#0 380467038#0 380467038#1 380467045 207108043 207107599#0 207107599#1 207107599#2 207107599#5 206996918#1 206996918#2 206996918#3 206996918#4 96885307#1 108285811 38060075 -550552878 -550552856 -166369347#1 -166369347#0 -235155193 -11266299 46102871#0 46102871#1 253354181#0 253354181#2 253354181#3 -39025893#1 -39025893#0 41383223 251642743#0 251642743#1 251642743#2 4680883#0 4680883#1 396325643#0 380682394 211956507#0 211956507#1 2372075#0 2372075#2 2372075#4 2372075#6 3996990#0 3996990#2 602799892#0 602799892#1 602799892#2 602799892#3 497287409 224186264 497287421 497287420 -497287410#1 -497287410#0 -26780887#0 -26710527#3 -26710527#2 -26710527#1 -26710527#0 -35803751#6 -35803751#5 -4332942#1"/>
    </vehicle>
    <vehicle id="veh33" type="passenger" depart="33.96" departLane="best">
        <route edges="-30198798 30193003#2 30193003#3 30193003#4 30193003#5 -2430956#6 202053028#6 99961288#1 99961288#3 99961288#4 99961288#5 30080799 311561501#0 -4884668#8 -4884668#7 -4884668#6 -6578208 6578208"/>
    </vehicle>
    <vehicle id="veh34" type="passenger" depart="34.99" departLane="best">
        <route edges="26709645#1 26709645#2 26709645#3 26709645#4 9195642#0 9195642#1 9195642#2 224188120#0 224188120#2 224188123#0 224188123#1 224188581#1 4257245 220412585#0 220412585#1 211959862 211956502 211956507#0 211956507#1 2372075#0 2372075#2 4367366#1 4367366#2 41383226#2 41383226#3 41383226#5 4680883#0 4680883#1 -396327478#3 -396327478#1 -396327478#0 -396327477#0 -583871396 -161652141#14 8256233#0 -82123817"/>
    </vehicle>
    <vehicle id="veh35" type="passenger" depart="36.02" departLane="best">
        <route edges="602799890#5 -121904678#1 211956502 211956507#0 211956507#1 2372075#0 2372075#2 4367366#1 4367366#2 41383226#2 41383226#3 41383226#5 -251642743#2 -251642743#1 -251642743#0 -41383223 39025893#0 39025893#1 253354182#0 253354182#2 253354182#3 253354182#4 253354178#0 253354178#2 11266299 235155193 166369347#0 166369347#1 550552856 550552878 4680885 211342282#1 -17691742#4 -17691742#3 -17691742#2 -17691742#1 -17691742#0 -5044805 -5044806#1 -5044806#0 -16629512#1 -16629512#0 2466941#2 2466941#4 2466941#5 2466941#6 -16292271#2 16292271#2"/>
    </vehicle>
    <vehicle id="veh37" type="passenger" depart="38.08" departLane="best">
        <route edges="225465142#0 225465142#1 -602799890#3 -602799890#2 -602799890#1 -602799890#0 -558603482#5 -558603482#4 -558603482#2 -4366227#5 -4366227#2 -4366227#1 -4366227#0 18309854 18310162#0 18310162#1 8591115#1 13851546#0 13851546#1 13851546#2 13851546#3 13851546#4 13851546#5 13851546#6 37278014 -4264243#6 -4264243#5 -4264243#3"/>
    </vehicle>
    <vehicle id="veh38" type="passenger" depart="39.11" departLane="best">